Program Version,EnergyPlus, Version 9.6.0-f420c06a69, YMD=2022.04.22 11:11
! <Version>, Version ID
 Version, 9.6
! <Timesteps per Hour>, #TimeSteps, Minutes per TimeStep {minutes}
 Timesteps per Hour,  2, 30
! <System Convergence Limits>, Minimum System TimeStep {minutes}, Max HVAC Iterations, Minimum Plant Iterations, Maximum Plant Iterations
 System Convergence Limits, 1, 25, 2, 8
! <Simulation Control>, Do Zone Sizing, Do System Sizing, Do Plant Sizing, Do Design Days, Do Weather Simulation, Do HVAC Sizing Simulation
 Simulation Control, Yes, Yes, Yes, No, Yes, No
! <Performance Precision Tradeoffs>, Use Coil Direct Simulation, Zone Radiant Exchange Algorithm, Override Mode, Number of Timestep In Hour, Force Euler Method, Minimum Number of Warmup Days, Force Suppress All Begin Environment Resets, Minimum System Timestep, MaxZoneTempDiff, MaxAllowedDelTemp
 Performance Precision Tradeoffs, No, ScriptF, Normal, 2, No, 1, No, 1.0, 0.300, 2.0000E-003
! <Output Reporting Tolerances>, Tolerance for Time Heating Setpoint Not Met, Tolerance for Zone Cooling Setpoint Not Met Time
 Output Reporting Tolerances, 1.110, 1.110, 
! <Site:GroundTemperature:BuildingSurface>,Jan{C},Feb{C},Mar{C},Apr{C},May{C},Jun{C},Jul{C},Aug{C},Sep{C},Oct{C},Nov{C},Dec{C}
 Site:GroundTemperature:BuildingSurface,  18.00,  18.00,  18.00,  18.00,  18.00,  18.00,  18.00,  18.00,  18.00,  18.00,  18.00,  18.00
! <Site:GroundTemperature:FCfactorMethod>,Jan{C},Feb{C},Mar{C},Apr{C},May{C},Jun{C},Jul{C},Aug{C},Sep{C},Oct{C},Nov{C},Dec{C}
 Site:GroundTemperature:FCfactorMethod,   3.00,   0.00,  -1.10,   0.00,   3.00,   7.20,  11.30,  14.30,  15.40,  14.30,  11.30,   7.20
! <Site:GroundTemperature:Shallow>,Jan{C},Feb{C},Mar{C},Apr{C},May{C},Jun{C},Jul{C},Aug{C},Sep{C},Oct{C},Nov{C},Dec{C}
 Site:GroundTemperature:Shallow,  14.00,  14.00,  14.00,  14.00,  14.00,  14.00,  14.00,  14.00,  14.00,  14.00,  14.00,  14.00
! <Site:GroundTemperature:Deep>,Jan{C},Feb{C},Mar{C},Apr{C},May{C},Jun{C},Jul{C},Aug{C},Sep{C},Oct{C},Nov{C},Dec{C}
 Site:GroundTemperature:Deep,  14.00,  14.00,  14.00,  14.00,  14.00,  14.00,  14.00,  14.00,  14.00,  14.00,  14.00,  14.00
! <Site:GroundReflectance>,Jan{dimensionless},Feb{dimensionless},Mar{dimensionless},Apr{dimensionless},May{dimensionless},Jun{dimensionless},Jul{dimensionless},Aug{dimensionless},Sep{dimensionless},Oct{dimensionless},Nov{dimensionless},Dec{dimensionless}
 Site:GroundReflectance,  0.20,  0.20,  0.20,  0.20,  0.20,  0.20,  0.20,  0.20,  0.20,  0.20,  0.20,  0.20
! <Site:GroundReflectance:SnowModifier>, Normal, Daylighting {dimensionless}
 Site:GroundReflectance:SnowModifier,   2.000,   2.000
! <Site:GroundReflectance:Snow>,Jan{dimensionless},Feb{dimensionless},Mar{dimensionless},Apr{dimensionless},May{dimensionless},Jun{dimensionless},Jul{dimensionless},Aug{dimensionless},Sep{dimensionless},Oct{dimensionless},Nov{dimensionless},Dec{dimensionless}
 Site:GroundReflectance:Snow,  0.40,  0.40,  0.40,  0.40,  0.40,  0.40,  0.40,  0.40,  0.40,  0.40,  0.40,  0.40
! <Site:GroundReflectance:Snow:Daylighting>,Jan{dimensionless},Feb{dimensionless},Mar{dimensionless},Apr{dimensionless},May{dimensionless},Jun{dimensionless},Jul{dimensionless},Aug{dimensionless},Sep{dimensionless},Oct{dimensionless},Nov{dimensionless},Dec{dimensionless}
 Site:GroundReflectance:Snow:Daylighting,  0.40,  0.40,  0.40,  0.40,  0.40,  0.40,  0.40,  0.40,  0.40,  0.40,  0.40,  0.40
! <Environment:Weather Station>,Wind Sensor Height Above Ground {m},Wind Speed Profile Exponent {},Wind Speed Profile Boundary Layer Thickness {m},Air Temperature Sensor Height Above Ground {m},Wind Speed Modifier Coefficient-Internal,Temperature Modifier Coefficient-Internal
Environment:Weather Station,10.000,0.140,270.000,1.500,1.586,9.750E-003
! <Site:Location>, Location Name, Latitude {N+/S- Deg}, Longitude {E+/W- Deg},  Time Zone Number {GMT+/-}, Elevation {m},  Standard Pressure at Elevation {Pa}, Standard RhoAir at Elevation
Site:Location,Asahikawa JA - MN8 WMO#=0,43.77,142.38,9.00,122.00,99868,1.1870
! <Site Water Mains Temperature Information>,Calculation Method{},Water Mains Temperature Schedule Name{},Annual Average Outdoor Air Temperature{C},Maximum Difference In Monthly Average Outdoor Air Temperatures{deltaC},Fixed Default Water Mains Temperature{C}
Site Water Mains Temperature Information,FixedDefault,NA,NA,NA,10.0
! <Building Information>, Building Name,North Axis {deg},Terrain,  Loads Convergence Tolerance Value,Temperature Convergence Tolerance Value,  Solar Distribution,Maximum Number of Warmup Days,Minimum Number of Warmup Days
 Building Information,Building,0.000,Suburbs,4.00000E-002,0.40000,FullExterior,25,6
! <Inside Convection Algorithm>, Algorithm {Simple | TARP | CeilingDiffuser | AdaptiveConvectionAlgorithm}
Inside Convection Algorithm,TARP
! <Outside Convection Algorithm>, Algorithm {SimpleCombined | TARP | MoWitt | DOE-2 | AdaptiveConvectionAlgorithm}
Outside Convection Algorithm,DOE-2
! <Sky Radiance Distribution>, Value {Anisotropic}
Sky Radiance Distribution,Anisotropic
! <Zone Air Solution Algorithm>, Value {ThirdOrderBackwardDifference | AnalyticalSolution | EulerMethod}
 Zone Air Solution Algorithm, ThirdOrderBackwardDifference
! <Zone Air Carbon Dioxide Balance Simulation>, Simulation {Yes/No}, Carbon Dioxide Concentration
 Zone Air Carbon Dioxide Balance Simulation, No,N/A
! <Zone Air Generic Contaminant Balance Simulation>, Simulation {Yes/No}, Generic Contaminant Concentration
 Zone Air Generic Contaminant Balance Simulation, No,N/A
! <Zone Air Mass Flow Balance Simulation>, Enforce Mass Balance, Adjust Zone Mixing and Return {AdjustMixingOnly | AdjustReturnOnly | AdjustMixingThenReturn | AdjustReturnThenMixing | None}, Adjust Zone Infiltration {AddInfiltration | AdjustInfiltration | None}, Infiltration Zones {MixingSourceZonesOnly | AllZones}
 Zone Air Mass Flow Balance Simulation, No,N/A,N/A,N/A
! <HVACSystemRootFindingAlgorithm>, Value {RegulaFalsi | Bisection | BisectionThenRegulaFalsi | RegulaFalsiThenBisection}
 HVACSystemRootFindingAlgorithm, RegulaFalsi
! <Environment:Site Atmospheric Variation>,Wind Speed Profile Exponent {},Wind Speed Profile Boundary Layer Thickness {m},Air Temperature Gradient Coefficient {K/m}
Environment:Site Atmospheric Variation,0.220,370.000,6.500000E-003
! <Surface Geometry>,Starting Corner,Vertex Input Direction,Coordinate System,Daylight Reference Point Coordinate System,Rectangular (Simple) Surface Coordinate System
 Surface Geometry,LowerLeftCorner,Counterclockwise,RelativeCoordinateSystem,RelativeCoordinateSystem,RelativeToZoneOrigin
! <Surface Heat Transfer Algorithm>, Value {CTF - ConductionTransferFunction | EMPD - MoisturePenetrationDepthConductionTransferFunction | CondFD - ConductionFiniteDifference | HAMT - CombinedHeatAndMoistureFiniteElement} - Description,Inside Surface Max Temperature Limit{C}, Surface Convection Coefficient Lower Limit {W/m2-K}, Surface Convection Coefficient Upper Limit {W/m2-K}
Surface Heat Transfer Algorithm, CTF - ConductionTransferFunction,2000,1.00E-008,1000.0
! <Shading Summary>, Number of Fixed Detached Shades, Number of Building Detached Shades, Number of Attached Shades
 Shading Summary,0,180,0
! <Zone Summary>, Number of Zones, Number of Zone Surfaces, Number of SubSurfaces
 Zone Summary,5,61,15
! <Zone Information>,Zone Name,North Axis {deg},Origin X-Coordinate {m},Origin Y-Coordinate {m},Origin Z-Coordinate {m},Centroid X-Coordinate {m},Centroid Y-Coordinate {m},Centroid Z-Coordinate {m},Type,Zone Multiplier,Zone List Multiplier,Minimum X {m},Maximum X {m},Minimum Y {m},Maximum Y {m},Minimum Z {m},Maximum Z {m},Ceiling Height {m},Volume {m3},Zone Inside Convection Algorithm {Simple-Detailed-CeilingDiffuser-TrombeWall},Zone Outside Convection Algorithm {Simple-Detailed-Tarp-MoWitt-DOE-2-BLAST}, Floor Area {m2},Exterior Gross Wall Area {m2},Exterior Net Wall Area {m2},Exterior Window Area {m2}, Number of Surfaces, Number of SubSurfaces, Number of Shading SubSurfaces,  Part of Total Building Area
 Zone Information, BLOCK1:ZONE1,0.0,0.00,0.00,0.00,-6.15,2.25,1.35,1,1,1,-8.37,-3.92,0.35,4.15,0.00,2.70,2.70,41.04,TARP,DOE-2,15.79,12.02,11.15,0.72,7,3,0,Yes
 Zone Information, BLOCK1:ZONE3,0.0,0.00,0.00,0.00,-2.73,3.33,1.35,1,1,1,-3.92,-1.42,2.37,4.15,0.00,2.70,2.70,8.70,TARP,DOE-2,3.34,10.64,9.78,0.72,10,2,0,Yes
 Zone Information, BLOCK1:ZONE5,0.0,0.00,0.00,0.00,-2.15,-0.50,1.35,1,1,1,-3.92,5.00E-002,-2.75,2.37,0.00,2.70,2.70,39.08,TARP,DOE-2,15.03,18.14,12.69,3.35,15,6,0,Yes
 Zone Information, BLOCK1:ZONE2,0.0,0.00,0.00,0.00,-6.15,-1.20,1.35,1,1,1,-8.37,-3.92,-2.75,0.35,0.00,2.70,2.70,33.17,TARP,DOE-2,12.76,12.02,8.37,3.35,6,3,0,Yes
 Zone Information, BLOCK1:ZONE4,0.0,0.00,0.00,0.00,2851.70,2.12,1.39,1,1,1,-2.90,100002.00,0.00,2.71,0.00,2.70,2.70,3.39,TARP,DOE-2,1.30,3.42,3.42,0.00,8,1,0,Yes
! <Zone Internal Gains Nominal>,Zone Name, Floor Area {m2},# Occupants,Area per Occupant {m2/person},Occupant per Area {person/m2},Interior Lighting {W/m2},Electric Load {W/m2},Gas Load {W/m2},Other Load {W/m2},Hot Water Eq {W/m2},Steam Equipment {W/m2},Sum Loads per Area {W/m2},Outdoor Controlled Baseboard Heat
 Zone Internal Gains Nominal, BLOCK1:ZONE1,15.79,0.5,31.118,3.214E-002,4.713,0.000,0.000,4.713,0.000,0.000,9.426,No
 Zone Internal Gains Nominal, BLOCK1:ZONE3,3.34,0.1,28.245,3.540E-002,5.193,0.000,0.000,5.193,0.000,0.000,10.385,No
 Zone Internal Gains Nominal, BLOCK1:ZONE5,15.03,0.5,30.807,3.246E-002,4.761,0.000,0.000,4.761,0.000,0.000,9.522,No
 Zone Internal Gains Nominal, BLOCK1:ZONE2,12.76,0.4,30.830,3.244E-002,4.757,0.000,0.000,4.757,0.000,0.000,9.515,No
 Zone Internal Gains Nominal, BLOCK1:ZONE4,1.30,4.8E-002,27.181,3.679E-002,5.396,0.000,0.000,5.396,0.000,0.000,10.792,No
! <People Internal Gains Nominal>,Name,Schedule Name,Zone Name,Zone Floor Area {m2},# Zone Occupants,Number of People {},People/Floor Area {person/m2},Floor Area per person {m2/person},Fraction Radiant,Fraction Convected,Sensible Fraction Calculation,Activity level,ASHRAE 55 Warnings,Carbon Dioxide Generation Rate,Nominal Minimum Number of People,Nominal Maximum Number of People,MRT Calculation Type,Work Efficiency, Clothing Insulation Calculation Method,Clothing Insulation Calculation Method Schedule,Clothing,Air Velocity,Fanger Calculation,Pierce Calculation,KSU Calculation,Cooling Effect Calculation,Ankle Draft Calculation
 People Internal Gains Nominal, PEOPLE BLOCK1:ZONE1,CTE_RESIDENTIAL_OCCUPANCY,BLOCK1:ZONE1,15.79,0.5,0.5,3.214E-002,31.118,0.300,0.700,AutoCalculate,ACTIVITY SCHEDULE 124,No,3.8200E-008,0,1,Zone Averaged,WORK EFFICIENCY,Clothing Insulation Schedule,N/A,CLOTHING SCHEDULE 124,AIRVELOCITYSCHEDULE,Yes,No,No,No,No
 People Internal Gains Nominal, PEOPLE BLOCK1:ZONE3,CTE_RESIDENTIAL_OCCUPANCY,BLOCK1:ZONE3,3.34,0.1,0.1,3.540E-002,28.245,0.300,0.700,AutoCalculate,ACTIVITY SCHEDULE 132,No,3.8200E-008,0,0,Zone Averaged,WORK EFFICIENCY,Clothing Insulation Schedule,N/A,CLOTHING SCHEDULE 132,AIRVELOCITYSCHEDULE,Yes,No,No,No,No
 People Internal Gains Nominal, PEOPLE BLOCK1:ZONE5,CTE_RESIDENTIAL_OCCUPANCY,BLOCK1:ZONE5,15.03,0.5,0.5,3.246E-002,30.807,0.300,0.700,AutoCalculate,ACTIVITY SCHEDULE 158,No,3.8200E-008,0,0,Zone Averaged,WORK EFFICIENCY,Clothing Insulation Schedule,N/A,CLOTHING SCHEDULE 158,AIRVELOCITYSCHEDULE,Yes,No,No,No,No
 People Internal Gains Nominal, PEOPLE BLOCK1:ZONE2,CTE_RESIDENTIAL_OCCUPANCY,BLOCK1:ZONE2,12.76,0.4,0.4,3.244E-002,30.830,0.300,0.700,AutoCalculate,ACTIVITY SCHEDULE 182,No,3.8200E-008,0,0,Zone Averaged,WORK EFFICIENCY,Clothing Insulation Schedule,N/A,CLOTHING SCHEDULE 182,AIRVELOCITYSCHEDULE,Yes,No,No,No,No
 People Internal Gains Nominal, PEOPLE BLOCK1:ZONE4,CTE_RESIDENTIAL_OCCUPANCY,BLOCK1:ZONE4,1.30,4.8E-002,4.8E-002,3.679E-002,27.181,0.300,0.700,AutoCalculate,ACTIVITY SCHEDULE 196,No,3.8200E-008,0,5E-002,Zone Averaged,WORK EFFICIENCY,Clothing Insulation Schedule,N/A,CLOTHING SCHEDULE 196,AIRVELOCITYSCHEDULE,Yes,No,No,No,No
! <Lights Internal Gains Nominal>,Name,Schedule Name,Zone Name,Zone Floor Area {m2},# Zone Occupants,Lighting Level {W},Lights/Floor Area {W/m2},Lights per person {W/person},Fraction Return Air,Fraction Radiant,Fraction Short Wave,Fraction Convected,Fraction Replaceable,End-Use Category,Nominal Minimum Lighting Level {W},Nominal Maximum Lighting Level {W}
 Lights Internal Gains Nominal, BLOCK1:ZONE1,CTE_RESIDENTIAL_EQUIPMENT AND LIGHTING,BLOCK1:ZONE1,15.79,0.5,74.404,4.713,146.667,0.000,0.300,0.200,0.500,1.000,General,0.000,74.404
 Lights Internal Gains Nominal, BLOCK1:ZONE3,CTE_RESIDENTIAL_EQUIPMENT AND LIGHTING,BLOCK1:ZONE3,3.34,0.1,17.366,5.193,146.667,0.000,0.300,0.200,0.500,1.000,General,0.000,17.366
 Lights Internal Gains Nominal, BLOCK1:ZONE5,CTE_RESIDENTIAL_EQUIPMENT AND LIGHTING,BLOCK1:ZONE5,15.03,0.5,71.552,4.761,146.667,0.000,0.300,0.200,0.500,1.000,General,0.000,71.552
 Lights Internal Gains Nominal, BLOCK1:ZONE2,CTE_RESIDENTIAL_EQUIPMENT AND LIGHTING,BLOCK1:ZONE2,12.76,0.4,60.698,4.757,146.667,0.000,0.300,0.200,0.500,1.000,General,0.000,60.698
 Lights Internal Gains Nominal, BLOCK1:ZONE4,CTE_RESIDENTIAL_EQUIPMENT AND LIGHTING,BLOCK1:ZONE4,1.30,4.8E-002,7.033,5.396,146.667,0.000,0.300,0.200,0.500,1.000,General,0.000,7.033
! <OtherEquipment Internal Gains Nominal>,Name,Schedule Name,Zone Name,Zone Floor Area {m2},# Zone Occupants,Equipment Level {W},Equipment/Floor Area {W/m2},Equipment per person {W/person},Fraction Latent,Fraction Radiant,Fraction Lost,Fraction Convected,Nominal Minimum Equipment Level {W},Nominal Maximum Equipment Level {W}
 OtherEquipment Internal Gains Nominal, BLOCK1:ZONE1 MISCELLANEOUS GAIN 1,CTE_RESIDENTIAL_EQUIPMENT AND LIGHTING,BLOCK1:ZONE1,15.79,0.5,74.404,4.713,146.667,0.100,0.630,0.000,0.270,0.000,74.404
 OtherEquipment Internal Gains Nominal, BLOCK1:ZONE3 MISCELLANEOUS GAIN 1,CTE_RESIDENTIAL_EQUIPMENT AND LIGHTING,BLOCK1:ZONE3,3.34,0.1,17.366,5.193,146.667,0.100,0.630,0.000,0.270,0.000,17.366
 OtherEquipment Internal Gains Nominal, BLOCK1:ZONE5 MISCELLANEOUS GAIN 1,CTE_RESIDENTIAL_EQUIPMENT AND LIGHTING,BLOCK1:ZONE5,15.03,0.5,71.552,4.761,146.667,0.100,0.630,0.000,0.270,0.000,71.552
 OtherEquipment Internal Gains Nominal, BLOCK1:ZONE2 MISCELLANEOUS GAIN 1,CTE_RESIDENTIAL_EQUIPMENT AND LIGHTING,BLOCK1:ZONE2,12.76,0.4,60.698,4.757,146.667,0.100,0.630,0.000,0.270,0.000,60.698
 OtherEquipment Internal Gains Nominal, BLOCK1:ZONE4 MISCELLANEOUS GAIN 1,CTE_RESIDENTIAL_EQUIPMENT AND LIGHTING,BLOCK1:ZONE4,1.30,4.8E-002,7.033,5.396,146.667,0.100,0.630,0.000,0.270,0.000,7.033
! <Solar View Factor Check Values>,Zone/Enclosure Name,Original Check Value,Calculated Fixed Check Value,Final Check Value,Number of Iterations,Fixed RowSum Convergence,Used RowSum Convergence
Solar View Factor Check Values,BLOCK1:ZONE1,3.552714E-015,6.226699E-004,6.226699E-004,11,6.226699E-004,6.226699E-004
Solar View Factor Check Values,BLOCK1:ZONE3,0.000000,7.405298E-004,7.405298E-004,6,7.405298E-004,7.405298E-004
Solar View Factor Check Values,BLOCK1:ZONE5,5.329071E-014,8.711450E-004,8.711450E-004,9,8.711450E-004,8.711450E-004
Solar View Factor Check Values,BLOCK1:ZONE2,1.776357E-015,6.984656E-004,6.984656E-004,9,6.984656E-004,6.984656E-004
Solar View Factor Check Values,BLOCK1:ZONE4,1.776357E-015,6.768097E-004,6.768097E-004,11,6.768097E-004,6.768097E-004
! <Zone Surfaces>,Zone Name,# Surfaces
! <Shading Surfaces>,Number of Shading Surfaces,# Surfaces
! <HeatTransfer Surface>,Surface Name,Surface Class,Base Surface,Heat Transfer Algorithm,Construction,Nominal U (w/o film coefs) {W/m2-K},Nominal U (with film coefs) {W/m2-K},Solar Diffusing,Area (Net) {m2},Area (Gross) {m2},Area (Sunlit Calc) {m2},Azimuth {deg},Tilt {deg},~Width {m},~Height {m},Reveal {m},ExtBoundCondition,ExtConvCoeffCalc,IntConvCoeffCalc,SunExposure,WindExposure,ViewFactorToGround,ViewFactorToSky,ViewFactorToGround-IR,ViewFactorToSky-IR,#Sides
! <Shading Surface>,Surface Name,Surface Class,Base Surface,Heat Transfer Algorithm,Transmittance Schedule,Min Schedule Value,Max Schedule Value,Solar Diffusing,Area (Net) {m2},Area (Gross) {m2},Area (Sunlit Calc) {m2},Azimuth {deg},Tilt {deg},~Width {m},~Height {m},Reveal {m},ExtBoundCondition,ExtConvCoeffCalc,IntConvCoeffCalc,SunExposure,WindExposure,ViewFactorToGround,ViewFactorToSky,ViewFactorToGround-IR,ViewFactorToSky-IR,#Sides
! <Frame/Divider Surface>,Surface Name,Surface Class,Base Surface,Heat Transfer Algorithm,Construction,Nominal U (w/o film coefs) {W/m2-K},Nominal U (with film coefs) {W/m2-K},Solar Diffusing,Area (Net) {m2},Area (Gross) {m2},Area (Sunlit Calc) {m2},Azimuth {deg},Tilt {deg},~Width {m},~Height {m},Reveal {m}
Shading Surfaces,Number of Shading Surfaces,180
Shading Surface,EXT1,Detached Shading:Building,,None,,0.0,0.0, ,2.13,2.13,2.13,180.00,0.00,1.48,1.44,,,,,,,,,,,4
Shading Surface,Mir-EXT1,Detached Shading:Building,,None,,0.0,0.0, ,2.13,2.13,2.13,0.00,180.00,1.48,1.44,,,,,,,,,,,4
Shading Surface,EXT2,Detached Shading:Building,,None,,0.0,0.0, ,1.82,1.82,1.82,180.00,0.00,1.02,1.78,,,,,,,,,,,4
Shading Surface,Mir-EXT2,Detached Shading:Building,,None,,0.0,0.0, ,1.82,1.82,1.82,0.00,180.00,1.02,1.78,,,,,,,,,,,4
Shading Surface,EXT3,Detached Shading:Building,,None,,0.0,0.0, ,6.75,6.75,6.75,0.00,90.00,2.50,2.70,,,,,,,,,,,4
Shading Surface,Mir-EXT3,Detached Shading:Building,,None,,0.0,0.0, ,6.75,6.75,6.75,180.00,90.00,2.50,2.70,,,,,,,,,,,4
Shading Surface,EXT4,Detached Shading:Building,,None,,0.0,0.0, ,3.89,3.89,3.89,270.00,90.00,1.44,2.70,,,,,,,,,,,4
Shading Surface,Mir-EXT4,Detached Shading:Building,,None,,0.0,0.0, ,3.89,3.89,3.89,90.00,90.00,1.44,2.70,,,,,,,,,,,4
Shading Surface,EXT5,Detached Shading:Building,,None,,0.0,0.0, ,16.91,16.91,16.91,180.00,0.00,4.45,3.80,,,,,,,,,,,4
Shading Surface,Mir-EXT5,Detached Shading:Building,,None,,0.0,0.0, ,16.91,16.91,16.91,0.00,180.00,4.45,3.80,,,,,,,,,,,4
Shading Surface,EXT6,Detached Shading:Building,,None,,0.0,0.0, ,10.26,10.26,10.26,90.00,90.00,3.80,2.70,,,,,,,,,,,4
Shading Surface,Mir-EXT6,Detached Shading:Building,,None,,0.0,0.0, ,10.26,10.26,10.26,270.00,90.00,3.80,2.70,,,,,,,,,,,4
Shading Surface,EXT7,Detached Shading:Building,,None,,0.0,0.0, ,12.02,12.02,12.02,0.00,90.00,4.45,2.70,,,,,,,,,,,4
Shading Surface,Mir-EXT7,Detached Shading:Building,,None,,0.0,0.0, ,12.02,12.02,12.02,180.00,90.00,4.45,2.70,,,,,,,,,,,4
Shading Surface,EXT8,Detached Shading:Building,,None,,0.0,0.0, ,0.75,0.75,0.75,180.00,0.00,1.02,0.74,,,,,,,,,,,4
Shading Surface,Mir-EXT8,Detached Shading:Building,,None,,0.0,0.0, ,0.75,0.75,0.75,0.00,180.00,1.02,0.74,,,,,,,,,,,4
Shading Surface,EXT9,Detached Shading:Building,,None,,0.0,0.0, ,3.20,3.20,3.20,180.00,0.00,2.50,1.28,,,,,,,,,,,4
Shading Surface,Mir-EXT9,Detached Shading:Building,,None,,0.0,0.0, ,3.20,3.20,3.20,0.00,180.00,2.50,1.28,,,,,,,,,,,4
Shading Surface,EXT10,Detached Shading:Building,,None,,0.0,0.0, ,12.00,12.00,12.00,180.00,0.00,3.87,3.10,,,,,,,,,,,4
Shading Surface,Mir-EXT10,Detached Shading:Building,,None,,0.0,0.0, ,12.00,12.00,12.00,0.00,180.00,3.87,3.10,,,,,,,,,,,4
Shading Surface,EXT11,Detached Shading:Building,,None,,0.0,0.0, ,3.46,3.46,3.46,270.00,90.00,1.28,2.70,,,,,,,,,,,4
Shading Surface,Mir-EXT11,Detached Shading:Building,,None,,0.0,0.0, ,3.46,3.46,3.46,90.00,90.00,1.28,2.70,,,,,,,,,,,4
Shading Surface,EXT12,Detached Shading:Building,,None,,0.0,0.0, ,3.70,3.70,3.70,0.00,90.00,1.37,2.70,,,,,,,,,,,4
Shading Surface,Mir-EXT12,Detached Shading:Building,,None,,0.0,0.0, ,3.70,3.70,3.70,180.00,90.00,1.37,2.70,,,,,,,,,,,4
Shading Surface,EXT13,Detached Shading:Building,,None,,0.0,0.0, ,10.45,10.45,10.45,180.00,90.00,3.87,2.70,,,,,,,,,,,4
Shading Surface,Mir-EXT13,Detached Shading:Building,,None,,0.0,0.0, ,10.45,10.45,10.45,0.00,90.00,3.87,2.70,,,,,,,,,,,4
Shading Surface,EXT14,Detached Shading:Building,,None,,0.0,0.0, ,13.80,13.80,13.80,180.00,0.00,4.45,3.10,,,,,,,,,,,4
Shading Surface,Mir-EXT14,Detached Shading:Building,,None,,0.0,0.0, ,13.80,13.80,13.80,0.00,180.00,4.45,3.10,,,,,,,,,,,4
Shading Surface,EXT15,Detached Shading:Building,,None,,0.0,0.0, ,8.37,8.37,8.37,90.00,90.00,3.10,2.70,,,,,,,,,,,4
Shading Surface,Mir-EXT15,Detached Shading:Building,,None,,0.0,0.0, ,8.37,8.37,8.37,270.00,90.00,3.10,2.70,,,,,,,,,,,4
Shading Surface,EXT16,Detached Shading:Building,,None,,0.0,0.0, ,12.02,12.02,12.02,180.00,90.00,4.45,2.70,,,,,,,,,,,4
Shading Surface,Mir-EXT16,Detached Shading:Building,,None,,0.0,0.0, ,12.02,12.02,12.02,0.00,90.00,4.45,2.70,,,,,,,,,,,4
Shading Surface,EXT17,Detached Shading:Building,,None,,0.0,0.0, ,1.60,1.60,1.60,180.00,0.00,1.48,1.08,,,,,,,,,,,4
Shading Surface,Mir-EXT17,Detached Shading:Building,,None,,0.0,0.0, ,1.60,1.60,1.60,0.00,180.00,1.48,1.08,,,,,,,,,,,4
Shading Surface,EXT18,Detached Shading:Building,,None,,0.0,0.0, ,2.92,2.92,2.92,270.00,90.00,1.08,2.70,,,,,,,,,,,4
Shading Surface,Mir-EXT18,Detached Shading:Building,,None,,0.0,0.0, ,2.92,2.92,2.92,90.00,90.00,1.08,2.70,,,,,,,,,,,4
Shading Surface,POLYGON 1 OF BUILDING 1 - SHADING PLANE 1,Detached Shading:Building,,None,TRANSMITTANCE SCHEDULE FOR BUILDING 1 - SHADING PLANE 1,0.00,0.00, ,0.15,0.15,0.15,270.00,90.00,2.50,6.00E-002,,,,,,,,,,,4
Shading Surface,Mir-POLYGON 1 OF BUILDING 1 - SHADING PLANE 1,Detached Shading:Building,,None,TRANSMITTANCE SCHEDULE FOR BUILDING 1 - SHADING PLANE 1,0.00,0.00, ,0.15,0.15,0.15,90.00,90.00,2.50,6.00E-002,,,,,,,,,,,4
Shading Surface,POLYGON 1 OF BUILDING 1 - SHADING PLANE 2,Detached Shading:Building,,None,TRANSMITTANCE SCHEDULE FOR BUILDING 1 - SHADING PLANE 2,0.00,0.00, ,3.45,3.45,3.45,180.00,90.00,1.38,2.50,,,,,,,,,,,4
Shading Surface,Mir-POLYGON 1 OF BUILDING 1 - SHADING PLANE 2,Detached Shading:Building,,None,TRANSMITTANCE SCHEDULE FOR BUILDING 1 - SHADING PLANE 2,0.00,0.00, ,3.45,3.45,3.45,0.00,90.00,1.38,2.50,,,,,,,,,,,4
Shading Surface,POLYGON 1 OF BUILDING 1 - SHADING PLANE 3,Detached Shading:Building,,None,TRANSMITTANCE SCHEDULE FOR BUILDING 1 - SHADING PLANE 3,0.00,0.00, ,3.45,3.45,3.45,180.00,90.00,1.38,2.50,,,,,,,,,,,4
Shading Surface,Mir-POLYGON 1 OF BUILDING 1 - SHADING PLANE 3,Detached Shading:Building,,None,TRANSMITTANCE SCHEDULE FOR BUILDING 1 - SHADING PLANE 3,0.00,0.00, ,3.45,3.45,3.45,0.00,90.00,1.38,2.50,,,,,,,,,,,4
Shading Surface,POLYGON 1 OF BUILDING 1 - SHADING PLANE 4,Detached Shading:Building,,None,TRANSMITTANCE SCHEDULE FOR BUILDING 1 - SHADING PLANE 4,0.00,0.00, ,3.15,3.15,3.15,90.00,90.00,1.26,2.50,,,,,,,,,,,4
Shading Surface,Mir-POLYGON 1 OF BUILDING 1 - SHADING PLANE 4,Detached Shading:Building,,None,TRANSMITTANCE SCHEDULE FOR BUILDING 1 - SHADING PLANE 4,0.00,0.00, ,3.15,3.15,3.15,270.00,90.00,1.26,2.50,,,,,,,,,,,4
Shading Surface,POLYGON 1 OF BUILDING 1 - SHADING PLANE 5,Detached Shading:Building,,None,TRANSMITTANCE SCHEDULE FOR BUILDING 1 - SHADING PLANE 5,0.00,0.00, ,3.35,3.35,3.35,0.00,90.00,2.50,1.34,,,,,,,,,,,4
Shading Surface,Mir-POLYGON 1 OF BUILDING 1 - SHADING PLANE 5,Detached Shading:Building,,None,TRANSMITTANCE SCHEDULE FOR BUILDING 1 - SHADING PLANE 5,0.00,0.00, ,3.35,3.35,3.35,180.00,90.00,2.50,1.34,,,,,,,,,,,4
Shading Surface,POLYGON 1 OF BUILDING 1 - SHADING PLANE 6,Detached Shading:Building,,None,TRANSMITTANCE SCHEDULE FOR BUILDING 1 - SHADING PLANE 6,0.00,0.00, ,3.35,3.35,3.35,0.00,90.00,2.50,1.34,,,,,,,,,,,4
Shading Surface,Mir-POLYGON 1 OF BUILDING 1 - SHADING PLANE 6,Detached Shading:Building,,None,TRANSMITTANCE SCHEDULE FOR BUILDING 1 - SHADING PLANE 6,0.00,0.00, ,3.35,3.35,3.35,180.00,90.00,2.50,1.34,,,,,,,,,,,4
Shading Surface,POLYGON 1 OF BUILDING 1 - SHADING PLANE 7,Detached Shading:Building,,None,TRANSMITTANCE SCHEDULE FOR BUILDING 1 - SHADING PLANE 7,0.00,0.00, ,0.32,0.32,0.32,270.00,90.00,0.16,2.02,,,,,,,,,,,4
Shading Surface,Mir-POLYGON 1 OF BUILDING 1 - SHADING PLANE 7,Detached Shading:Building,,None,TRANSMITTANCE SCHEDULE FOR BUILDING 1 - SHADING PLANE 7,0.00,0.00, ,0.32,0.32,0.32,90.00,90.00,0.16,2.02,,,,,,,,,,,4
Shading Surface,POLYGON 2 OF BUILDING 1 - SHADING PLANE 7,Detached Shading:Building,,None,TRANSMITTANCE SCHEDULE FOR BUILDING 1 - SHADING PLANE 7,0.00,0.00, ,0.53,0.53,0.53,270.00,90.00,1.10,0.48,,,,,,,,,,,4
Shading Surface,Mir-POLYGON 2 OF BUILDING 1 - SHADING PLANE 7,Detached Shading:Building,,None,TRANSMITTANCE SCHEDULE FOR BUILDING 1 - SHADING PLANE 7,0.00,0.00, ,0.53,0.53,0.53,90.00,90.00,1.10,0.48,,,,,,,,,,,4
Shading Surface,POLYGON 3 OF BUILDING 1 - SHADING PLANE 7,Detached Shading:Building,,None,TRANSMITTANCE SCHEDULE FOR BUILDING 1 - SHADING PLANE 7,0.00,0.00, ,0.40,0.40,0.40,270.00,90.00,2.50,0.16,,,,,,,,,,,4
Shading Surface,Mir-POLYGON 3 OF BUILDING 1 - SHADING PLANE 7,Detached Shading:Building,,None,TRANSMITTANCE SCHEDULE FOR BUILDING 1 - SHADING PLANE 7,0.00,0.00, ,0.40,0.40,0.40,90.00,90.00,2.50,0.16,,,,,,,,,,,4
Shading Surface,POLYGON 1 OF BUILDING 1 - SHADING PLANE 8,Detached Shading:Building,,None,TRANSMITTANCE SCHEDULE FOR BUILDING 1 - SHADING PLANE 8,0.00,0.00, ,2.11,2.11,2.11,90.00,0.00,1.60,1.32,,,,,,,,,,,4
Shading Surface,Mir-POLYGON 1 OF BUILDING 1 - SHADING PLANE 8,Detached Shading:Building,,None,TRANSMITTANCE SCHEDULE FOR BUILDING 1 - SHADING PLANE 8,0.00,0.00, ,2.11,2.11,2.11,270.00,180.00,1.60,1.32,,,,,,,,,,,4
Shading Surface,POLYGON 2 OF BUILDING 1 - SHADING PLANE 8,Detached Shading:Building,,None,TRANSMITTANCE SCHEDULE FOR BUILDING 1 - SHADING PLANE 8,0.00,0.00, ,1.98,1.98,1.98,90.00,0.00,1.50,1.32,,,,,,,,,,,4
Shading Surface,Mir-POLYGON 2 OF BUILDING 1 - SHADING PLANE 8,Detached Shading:Building,,None,TRANSMITTANCE SCHEDULE FOR BUILDING 1 - SHADING PLANE 8,0.00,0.00, ,1.98,1.98,1.98,270.00,180.00,1.50,1.32,,,,,,,,,,,4
Shading Surface,POLYGON 3 OF BUILDING 1 - SHADING PLANE 8,Detached Shading:Building,,None,TRANSMITTANCE SCHEDULE FOR BUILDING 1 - SHADING PLANE 8,0.00,0.00, ,10.43,10.43,10.43,90.00,0.00,1.50,6.95,,,,,,,,,,,4
Shading Surface,Mir-POLYGON 3 OF BUILDING 1 - SHADING PLANE 8,Detached Shading:Building,,None,TRANSMITTANCE SCHEDULE FOR BUILDING 1 - SHADING PLANE 8,0.00,0.00, ,10.43,10.43,10.43,270.00,180.00,1.50,6.95,,,,,,,,,,,4
Shading Surface,POLYGON 4 OF BUILDING 1 - SHADING PLANE 8,Detached Shading:Building,,None,TRANSMITTANCE SCHEDULE FOR BUILDING 1 - SHADING PLANE 8,0.00,0.00, ,0.84,0.84,0.84,90.00,0.00,8.40,1.00E-001,,,,,,,,,,,4
Shading Surface,Mir-POLYGON 4 OF BUILDING 1 - SHADING PLANE 8,Detached Shading:Building,,None,TRANSMITTANCE SCHEDULE FOR BUILDING 1 - SHADING PLANE 8,0.00,0.00, ,0.84,0.84,0.84,270.00,180.00,8.40,1.00E-001,,,,,,,,,,,4
Shading Surface,POLYGON 5 OF BUILDING 1 - SHADING PLANE 8,Detached Shading:Building,,None,TRANSMITTANCE SCHEDULE FOR BUILDING 1 - SHADING PLANE 8,0.00,0.00, ,0.70,0.70,0.70,180.00,0.00,7.05,1.00E-001,,,,,,,,,,,4
Shading Surface,Mir-POLYGON 5 OF BUILDING 1 - SHADING PLANE 8,Detached Shading:Building,,None,TRANSMITTANCE SCHEDULE FOR BUILDING 1 - SHADING PLANE 8,0.00,0.00, ,0.70,0.70,0.70,0.00,180.00,7.05,1.00E-001,,,,,,,,,,,4
Shading Surface,POLYGON 6 OF BUILDING 1 - SHADING PLANE 8,Detached Shading:Building,,None,TRANSMITTANCE SCHEDULE FOR BUILDING 1 - SHADING PLANE 8,0.00,0.00, ,0.15,0.15,0.15,270.00,0.00,1.50,0.10,,,,,,,,,,,4
Shading Surface,Mir-POLYGON 6 OF BUILDING 1 - SHADING PLANE 8,Detached Shading:Building,,None,TRANSMITTANCE SCHEDULE FOR BUILDING 1 - SHADING PLANE 8,0.00,0.00, ,0.15,0.15,0.15,90.00,180.00,1.50,0.10,,,,,,,,,,,4
Shading Surface,POLYGON 7 OF BUILDING 1 - SHADING PLANE 8,Detached Shading:Building,,None,TRANSMITTANCE SCHEDULE FOR BUILDING 1 - SHADING PLANE 8,0.00,0.00, ,0.39,0.39,0.39,270.00,0.00,3.90,0.10,,,,,,,,,,,4
Shading Surface,Mir-POLYGON 7 OF BUILDING 1 - SHADING PLANE 8,Detached Shading:Building,,None,TRANSMITTANCE SCHEDULE FOR BUILDING 1 - SHADING PLANE 8,0.00,0.00, ,0.39,0.39,0.39,90.00,180.00,3.90,0.10,,,,,,,,,,,4
Shading Surface,POLYGON 1 OF BUILDING 1 - SHADING PLANE 9,Detached Shading:Building,,None,TRANSMITTANCE SCHEDULE FOR BUILDING 1 - SHADING PLANE 9,0.00,0.00, ,0.31,0.31,0.31,0.00,0.00,1.00E-001,3.10,,,,,,,,,,,4
Shading Surface,Mir-POLYGON 1 OF BUILDING 1 - SHADING PLANE 9,Detached Shading:Building,,None,TRANSMITTANCE SCHEDULE FOR BUILDING 1 - SHADING PLANE 9,0.00,0.00, ,0.31,0.31,0.31,180.00,180.00,1.00E-001,3.10,,,,,,,,,,,4
Shading Surface,POLYGON 2 OF BUILDING 1 - SHADING PLANE 9,Detached Shading:Building,,None,TRANSMITTANCE SCHEDULE FOR BUILDING 1 - SHADING PLANE 9,0.00,0.00, ,12.63,12.63,12.63,0.00,0.00,8.42,1.50,,,,,,,,,,,4
Shading Surface,Mir-POLYGON 2 OF BUILDING 1 - SHADING PLANE 9,Detached Shading:Building,,None,TRANSMITTANCE SCHEDULE FOR BUILDING 1 - SHADING PLANE 9,0.00,0.00, ,12.63,12.63,12.63,180.00,180.00,8.42,1.50,,,,,,,,,,,4
Shading Surface,POLYGON 3 OF BUILDING 1 - SHADING PLANE 9,Detached Shading:Building,,None,TRANSMITTANCE SCHEDULE FOR BUILDING 1 - SHADING PLANE 9,0.00,0.00, ,0.23,0.23,0.23,90.00,0.00,4.60,5.00E-002,,,,,,,,,,,4
Shading Surface,Mir-POLYGON 3 OF BUILDING 1 - SHADING PLANE 9,Detached Shading:Building,,None,TRANSMITTANCE SCHEDULE FOR BUILDING 1 - SHADING PLANE 9,0.00,0.00, ,0.23,0.23,0.23,270.00,180.00,4.60,5.00E-002,,,,,,,,,,,4
Shading Surface,POLYGON 4 OF BUILDING 1 - SHADING PLANE 9,Detached Shading:Building,,None,TRANSMITTANCE SCHEDULE FOR BUILDING 1 - SHADING PLANE 9,0.00,0.00, ,3.50E-002,3.50E-002,3.50E-002,180.00,0.00,1.00E-001,0.35,,,,,,,,,,,4
Shading Surface,Mir-POLYGON 4 OF BUILDING 1 - SHADING PLANE 9,Detached Shading:Building,,None,TRANSMITTANCE SCHEDULE FOR BUILDING 1 - SHADING PLANE 9,0.00,0.00, ,3.50E-002,3.50E-002,3.50E-002,0.00,180.00,1.00E-001,0.35,,,,,,,,,,,4
Shading Surface,POLYGON 5 OF BUILDING 1 - SHADING PLANE 9,Detached Shading:Building,,None,TRANSMITTANCE SCHEDULE FOR BUILDING 1 - SHADING PLANE 9,0.00,0.00, ,0.50,0.50,0.50,180.00,0.00,1.42,0.35,,,,,,,,,,,4
Shading Surface,Mir-POLYGON 5 OF BUILDING 1 - SHADING PLANE 9,Detached Shading:Building,,None,TRANSMITTANCE SCHEDULE FOR BUILDING 1 - SHADING PLANE 9,0.00,0.00, ,0.50,0.50,0.50,0.00,180.00,1.42,0.35,,,,,,,,,,,4
Shading Surface,POLYGON 6 OF BUILDING 1 - SHADING PLANE 9,Detached Shading:Building,,None,TRANSMITTANCE SCHEDULE FOR BUILDING 1 - SHADING PLANE 9,0.00,0.00, ,0.22,0.22,0.22,0.00,0.00,0.10,2.20,,,,,,,,,,,4
Shading Surface,Mir-POLYGON 6 OF BUILDING 1 - SHADING PLANE 9,Detached Shading:Building,,None,TRANSMITTANCE SCHEDULE FOR BUILDING 1 - SHADING PLANE 9,0.00,0.00, ,0.22,0.22,0.22,180.00,180.00,0.10,2.20,,,,,,,,,,,4
Shading Surface,POLYGON 7 OF BUILDING 1 - SHADING PLANE 9,Detached Shading:Building,,None,TRANSMITTANCE SCHEDULE FOR BUILDING 1 - SHADING PLANE 9,0.00,0.00, ,1.77,1.77,1.77,0.00,0.00,1.42,1.25,,,,,,,,,,,4
Shading Surface,Mir-POLYGON 7 OF BUILDING 1 - SHADING PLANE 9,Detached Shading:Building,,None,TRANSMITTANCE SCHEDULE FOR BUILDING 1 - SHADING PLANE 9,0.00,0.00, ,1.77,1.77,1.77,180.00,180.00,1.42,1.25,,,,,,,,,,,4
Shading Surface,POLYGON 8 OF BUILDING 1 - SHADING PLANE 9,Detached Shading:Building,,None,TRANSMITTANCE SCHEDULE FOR BUILDING 1 - SHADING PLANE 9,0.00,0.00, ,0.70,0.70,0.70,180.00,0.00,7.05,1.00E-001,,,,,,,,,,,4
Shading Surface,Mir-POLYGON 8 OF BUILDING 1 - SHADING PLANE 9,Detached Shading:Building,,None,TRANSMITTANCE SCHEDULE FOR BUILDING 1 - SHADING PLANE 9,0.00,0.00, ,0.70,0.70,0.70,0.00,180.00,7.05,1.00E-001,,,,,,,,,,,4
Shading Surface,POLYGON 9 OF BUILDING 1 - SHADING PLANE 9,Detached Shading:Building,,None,TRANSMITTANCE SCHEDULE FOR BUILDING 1 - SHADING PLANE 9,0.00,0.00, ,0.35,0.35,0.35,270.00,0.00,3.55,1.00E-001,,,,,,,,,,,4
Shading Surface,Mir-POLYGON 9 OF BUILDING 1 - SHADING PLANE 9,Detached Shading:Building,,None,TRANSMITTANCE SCHEDULE FOR BUILDING 1 - SHADING PLANE 9,0.00,0.00, ,0.35,0.35,0.35,90.00,180.00,3.55,1.00E-001,,,,,,,,,,,4
Shading Surface,POLYGON 1 OF BUILDING 1 - SHADING PLANE 10,Detached Shading:Building,,None,TRANSMITTANCE SCHEDULE FOR BUILDING 1 - SHADING PLANE 10,0.00,0.00, ,0.25,0.25,0.25,0.00,90.00,2.50,0.10,,,,,,,,,,,4
Shading Surface,Mir-POLYGON 1 OF BUILDING 1 - SHADING PLANE 10,Detached Shading:Building,,None,TRANSMITTANCE SCHEDULE FOR BUILDING 1 - SHADING PLANE 10,0.00,0.00, ,0.25,0.25,0.25,180.00,90.00,2.50,0.10,,,,,,,,,,,4
Shading Surface,POLYGON 1 OF BUILDING 1 - SHADING PLANE 11,Detached Shading:Building,,None,TRANSMITTANCE SCHEDULE FOR BUILDING 1 - SHADING PLANE 11,0.00,0.00, ,0.25,0.25,0.25,180.00,90.00,0.10,2.50,,,,,,,,,,,4
Shading Surface,Mir-POLYGON 1 OF BUILDING 1 - SHADING PLANE 11,Detached Shading:Building,,None,TRANSMITTANCE SCHEDULE FOR BUILDING 1 - SHADING PLANE 11,0.00,0.00, ,0.25,0.25,0.25,0.00,90.00,0.10,2.50,,,,,,,,,,,4
Shading Surface,POLYGON 1 OF BUILDING 1 - SHADING PLANE 12,Detached Shading:Building,,None,TRANSMITTANCE SCHEDULE FOR BUILDING 1 - SHADING PLANE 12,0.00,0.00, ,0.15,0.15,0.15,90.00,90.00,6.00E-002,2.50,,,,,,,,,,,4
Shading Surface,Mir-POLYGON 1 OF BUILDING 1 - SHADING PLANE 12,Detached Shading:Building,,None,TRANSMITTANCE SCHEDULE FOR BUILDING 1 - SHADING PLANE 12,0.00,0.00, ,0.15,0.15,0.15,270.00,90.00,6.00E-002,2.50,,,,,,,,,,,4
Shading Surface,POLYGON 1 OF BUILDING 1 - SHADING PLANE 13,Detached Shading:Building,,None,TRANSMITTANCE SCHEDULE FOR BUILDING 1 - SHADING PLANE 13,0.00,0.00, ,3.15,3.15,3.15,270.00,90.00,2.50,1.26,,,,,,,,,,,4
Shading Surface,Mir-POLYGON 1 OF BUILDING 1 - SHADING PLANE 13,Detached Shading:Building,,None,TRANSMITTANCE SCHEDULE FOR BUILDING 1 - SHADING PLANE 13,0.00,0.00, ,3.15,3.15,3.15,90.00,90.00,2.50,1.26,,,,,,,,,,,4
Shading Surface,POLYGON 1 OF BUILDING 1 - SHADING PLANE 14,Detached Shading:Building,,None,TRANSMITTANCE SCHEDULE FOR BUILDING 1 - SHADING PLANE 14,0.00,0.00, ,0.32,0.32,0.32,90.00,90.00,0.16,2.02,,,,,,,,,,,4
Shading Surface,Mir-POLYGON 1 OF BUILDING 1 - SHADING PLANE 14,Detached Shading:Building,,None,TRANSMITTANCE SCHEDULE FOR BUILDING 1 - SHADING PLANE 14,0.00,0.00, ,0.32,0.32,0.32,270.00,90.00,0.16,2.02,,,,,,,,,,,4
Shading Surface,POLYGON 2 OF BUILDING 1 - SHADING PLANE 14,Detached Shading:Building,,None,TRANSMITTANCE SCHEDULE FOR BUILDING 1 - SHADING PLANE 14,0.00,0.00, ,0.53,0.53,0.53,90.00,90.00,1.10,0.48,,,,,,,,,,,4
Shading Surface,Mir-POLYGON 2 OF BUILDING 1 - SHADING PLANE 14,Detached Shading:Building,,None,TRANSMITTANCE SCHEDULE FOR BUILDING 1 - SHADING PLANE 14,0.00,0.00, ,0.53,0.53,0.53,270.00,90.00,1.10,0.48,,,,,,,,,,,4
Shading Surface,POLYGON 3 OF BUILDING 1 - SHADING PLANE 14,Detached Shading:Building,,None,TRANSMITTANCE SCHEDULE FOR BUILDING 1 - SHADING PLANE 14,0.00,0.00, ,0.40,0.40,0.40,90.00,90.00,2.50,0.16,,,,,,,,,,,4
Shading Surface,Mir-POLYGON 3 OF BUILDING 1 - SHADING PLANE 14,Detached Shading:Building,,None,TRANSMITTANCE SCHEDULE FOR BUILDING 1 - SHADING PLANE 14,0.00,0.00, ,0.40,0.40,0.40,270.00,90.00,2.50,0.16,,,,,,,,,,,4
Shading Surface,BUILDING 1 - COMPONENT BLOCK 1 - SURFACE 1 (51),Detached Shading:Building,,None,TRANSMITTANCE SCHEDULE FOR BUILDING 1 - COMPONENT BLOCK 1,0.00,0.00, ,26.41,26.41,26.41,0.00,180.00,6.95,3.80,,,,,,,,,,,4
Shading Surface,Mir-BUILDING 1 - COMPONENT BLOCK 1 - SURFACE 1 (51),Detached Shading:Building,,None,TRANSMITTANCE SCHEDULE FOR BUILDING 1 - COMPONENT BLOCK 1,0.00,0.00, ,26.41,26.41,26.41,180.00,0.00,6.95,3.80,,,,,,,,,,,4
Shading Surface,BUILDING 1 - COMPONENT BLOCK 1 - SURFACE 2 (52),Detached Shading:Building,,None,TRANSMITTANCE SCHEDULE FOR BUILDING 1 - COMPONENT BLOCK 1,0.00,0.00, ,30.35,30.35,30.35,0.00,180.00,9.79,3.10,,,,,,,,,,,4
Shading Surface,Mir-BUILDING 1 - COMPONENT BLOCK 1 - SURFACE 2 (52),Detached Shading:Building,,None,TRANSMITTANCE SCHEDULE FOR BUILDING 1 - COMPONENT BLOCK 1,0.00,0.00, ,30.35,30.35,30.35,180.00,0.00,9.79,3.10,,,,,,,,,,,4
Shading Surface,BUILDING 1 - COMPONENT BLOCK 1 - SURFACE 3 (53),Detached Shading:Building,,None,TRANSMITTANCE SCHEDULE FOR BUILDING 1 - COMPONENT BLOCK 1,0.00,0.00, ,47.96,47.96,47.96,0.00,180.00,6.95,6.90,,,,,,,,,,,4
Shading Surface,Mir-BUILDING 1 - COMPONENT BLOCK 1 - SURFACE 3 (53),Detached Shading:Building,,None,TRANSMITTANCE SCHEDULE FOR BUILDING 1 - COMPONENT BLOCK 1,0.00,0.00, ,47.96,47.96,47.96,180.00,0.00,6.95,6.90,,,,,,,,,,,4
Shading Surface,BUILDING 1 - COMPONENT BLOCK 1 - SURFACE 4 (54),Detached Shading:Building,,None,TRANSMITTANCE SCHEDULE FOR BUILDING 1 - COMPONENT BLOCK 1,0.00,0.00, ,26.41,26.41,26.41,180.00,0.00,6.95,3.80,,,,,,,,,,,4
Shading Surface,Mir-BUILDING 1 - COMPONENT BLOCK 1 - SURFACE 4 (54),Detached Shading:Building,,None,TRANSMITTANCE SCHEDULE FOR BUILDING 1 - COMPONENT BLOCK 1,0.00,0.00, ,26.41,26.41,26.41,0.00,180.00,6.95,3.80,,,,,,,,,,,4
Shading Surface,BUILDING 1 - COMPONENT BLOCK 1 - SURFACE 5 (55),Detached Shading:Building,,None,TRANSMITTANCE SCHEDULE FOR BUILDING 1 - COMPONENT BLOCK 1,0.00,0.00, ,30.35,30.35,30.35,180.00,0.00,9.79,3.10,,,,,,,,,,,4
Shading Surface,Mir-BUILDING 1 - COMPONENT BLOCK 1 - SURFACE 5 (55),Detached Shading:Building,,None,TRANSMITTANCE SCHEDULE FOR BUILDING 1 - COMPONENT BLOCK 1,0.00,0.00, ,30.35,30.35,30.35,0.00,180.00,9.79,3.10,,,,,,,,,,,4
Shading Surface,BUILDING 1 - COMPONENT BLOCK 1 - SURFACE 6 (56),Detached Shading:Building,,None,TRANSMITTANCE SCHEDULE FOR BUILDING 1 - COMPONENT BLOCK 1,0.00,0.00, ,47.96,47.96,47.96,180.00,0.00,6.95,6.90,,,,,,,,,,,4
Shading Surface,Mir-BUILDING 1 - COMPONENT BLOCK 1 - SURFACE 6 (56),Detached Shading:Building,,None,TRANSMITTANCE SCHEDULE FOR BUILDING 1 - COMPONENT BLOCK 1,0.00,0.00, ,47.96,47.96,47.96,0.00,180.00,6.95,6.90,,,,,,,,,,,4
Shading Surface,BUILDING 1 - COMPONENT BLOCK 1 - SURFACE 7 (57),Detached Shading:Building,,None,TRANSMITTANCE SCHEDULE FOR BUILDING 1 - COMPONENT BLOCK 1,0.00,0.00, ,24.33,24.33,24.33,0.00,90.00,6.95,3.50,,,,,,,,,,,4
Shading Surface,Mir-BUILDING 1 - COMPONENT BLOCK 1 - SURFACE 7 (57),Detached Shading:Building,,None,TRANSMITTANCE SCHEDULE FOR BUILDING 1 - COMPONENT BLOCK 1,0.00,0.00, ,24.33,24.33,24.33,180.00,90.00,6.95,3.50,,,,,,,,,,,4
Shading Surface,BUILDING 1 - COMPONENT BLOCK 1 - SURFACE 8 (58),Detached Shading:Building,,None,TRANSMITTANCE SCHEDULE FOR BUILDING 1 - COMPONENT BLOCK 1,0.00,0.00, ,13.30,13.30,13.30,90.00,90.00,3.80,3.50,,,,,,,,,,,4
Shading Surface,Mir-BUILDING 1 - COMPONENT BLOCK 1 - SURFACE 8 (58),Detached Shading:Building,,None,TRANSMITTANCE SCHEDULE FOR BUILDING 1 - COMPONENT BLOCK 1,0.00,0.00, ,13.30,13.30,13.30,270.00,90.00,3.80,3.50,,,,,,,,,,,4
Shading Surface,BUILDING 1 - COMPONENT BLOCK 1 - SURFACE 9 (59),Detached Shading:Building,,None,TRANSMITTANCE SCHEDULE FOR BUILDING 1 - COMPONENT BLOCK 1,0.00,0.00, ,9.94,9.94,9.94,0.00,90.00,2.84,3.50,,,,,,,,,,,4
Shading Surface,Mir-BUILDING 1 - COMPONENT BLOCK 1 - SURFACE 9 (59),Detached Shading:Building,,None,TRANSMITTANCE SCHEDULE FOR BUILDING 1 - COMPONENT BLOCK 1,0.00,0.00, ,9.94,9.94,9.94,180.00,90.00,2.84,3.50,,,,,,,,,,,4
Shading Surface,BUILDING 1 - COMPONENT BLOCK 1 - SURFACE 10 (60),Detached Shading:Building,,None,TRANSMITTANCE SCHEDULE FOR BUILDING 1 - COMPONENT BLOCK 1,0.00,0.00, ,13.30,13.30,13.30,270.00,90.00,3.80,3.50,,,,,,,,,,,4
Shading Surface,Mir-BUILDING 1 - COMPONENT BLOCK 1 - SURFACE 10 (60),Detached Shading:Building,,None,TRANSMITTANCE SCHEDULE FOR BUILDING 1 - COMPONENT BLOCK 1,0.00,0.00, ,13.30,13.30,13.30,90.00,90.00,3.80,3.50,,,,,,,,,,,4
Shading Surface,BUILDING 1 - COMPONENT BLOCK 1 - SURFACE 11 (61),Detached Shading:Building,,None,TRANSMITTANCE SCHEDULE FOR BUILDING 1 - COMPONENT BLOCK 1,0.00,0.00, ,24.33,24.33,24.33,0.00,90.00,6.95,3.50,,,,,,,,,,,4
Shading Surface,Mir-BUILDING 1 - COMPONENT BLOCK 1 - SURFACE 11 (61),Detached Shading:Building,,None,TRANSMITTANCE SCHEDULE FOR BUILDING 1 - COMPONENT BLOCK 1,0.00,0.00, ,24.33,24.33,24.33,180.00,90.00,6.95,3.50,,,,,,,,,,,4
Shading Surface,BUILDING 1 - COMPONENT BLOCK 1 - SURFACE 12 (62),Detached Shading:Building,,None,TRANSMITTANCE SCHEDULE FOR BUILDING 1 - COMPONENT BLOCK 1,0.00,0.00, ,24.15,24.15,24.15,90.00,90.00,6.90,3.50,,,,,,,,,,,4
Shading Surface,Mir-BUILDING 1 - COMPONENT BLOCK 1 - SURFACE 12 (62),Detached Shading:Building,,None,TRANSMITTANCE SCHEDULE FOR BUILDING 1 - COMPONENT BLOCK 1,0.00,0.00, ,24.15,24.15,24.15,270.00,90.00,6.90,3.50,,,,,,,,,,,4
Shading Surface,BUILDING 1 - COMPONENT BLOCK 1 - SURFACE 13 (63),Detached Shading:Building,,None,TRANSMITTANCE SCHEDULE FOR BUILDING 1 - COMPONENT BLOCK 1,0.00,0.00, ,58.59,58.59,58.59,180.00,90.00,16.74,3.50,,,,,,,,,,,4
Shading Surface,Mir-BUILDING 1 - COMPONENT BLOCK 1 - SURFACE 13 (63),Detached Shading:Building,,None,TRANSMITTANCE SCHEDULE FOR BUILDING 1 - COMPONENT BLOCK 1,0.00,0.00, ,58.59,58.59,58.59,0.00,90.00,16.74,3.50,,,,,,,,,,,4
Shading Surface,BUILDING 1 - COMPONENT BLOCK 1 - SURFACE 14 (64),Detached Shading:Building,,None,TRANSMITTANCE SCHEDULE FOR BUILDING 1 - COMPONENT BLOCK 1,0.00,0.00, ,24.15,24.15,24.15,270.00,90.00,6.90,3.50,,,,,,,,,,,4
Shading Surface,Mir-BUILDING 1 - COMPONENT BLOCK 1 - SURFACE 14 (64),Detached Shading:Building,,None,TRANSMITTANCE SCHEDULE FOR BUILDING 1 - COMPONENT BLOCK 1,0.00,0.00, ,24.15,24.15,24.15,90.00,90.00,6.90,3.50,,,,,,,,,,,4
Shading Surface,BUILDING 1 - COMPONENT BLOCK 2 - SURFACE 1 (65),Detached Shading:Building,,None,TRANSMITTANCE SCHEDULE FOR BUILDING 1 - COMPONENT BLOCK 2,0.00,0.00, ,26.41,26.41,26.41,180.00,0.00,6.95,3.80,,,,,,,,,,,4
Shading Surface,Mir-BUILDING 1 - COMPONENT BLOCK 2 - SURFACE 1 (65),Detached Shading:Building,,None,TRANSMITTANCE SCHEDULE FOR BUILDING 1 - COMPONENT BLOCK 2,0.00,0.00, ,26.41,26.41,26.41,0.00,180.00,6.95,3.80,,,,,,,,,,,4
Shading Surface,BUILDING 1 - COMPONENT BLOCK 2 - SURFACE 2 (66),Detached Shading:Building,,None,TRANSMITTANCE SCHEDULE FOR BUILDING 1 - COMPONENT BLOCK 2,0.00,0.00, ,30.35,30.35,30.35,180.00,0.00,9.79,3.10,,,,,,,,,,,4
Shading Surface,Mir-BUILDING 1 - COMPONENT BLOCK 2 - SURFACE 2 (66),Detached Shading:Building,,None,TRANSMITTANCE SCHEDULE FOR BUILDING 1 - COMPONENT BLOCK 2,0.00,0.00, ,30.35,30.35,30.35,0.00,180.00,9.79,3.10,,,,,,,,,,,4
Shading Surface,BUILDING 1 - COMPONENT BLOCK 2 - SURFACE 3 (67),Detached Shading:Building,,None,TRANSMITTANCE SCHEDULE FOR BUILDING 1 - COMPONENT BLOCK 2,0.00,0.00, ,47.96,47.96,47.96,180.00,0.00,6.95,6.90,,,,,,,,,,,4
Shading Surface,Mir-BUILDING 1 - COMPONENT BLOCK 2 - SURFACE 3 (67),Detached Shading:Building,,None,TRANSMITTANCE SCHEDULE FOR BUILDING 1 - COMPONENT BLOCK 2,0.00,0.00, ,47.96,47.96,47.96,0.00,180.00,6.95,6.90,,,,,,,,,,,4
Shading Surface,BUILDING 1 - COMPONENT BLOCK 2 - SURFACE 4 (68),Detached Shading:Building,,None,TRANSMITTANCE SCHEDULE FOR BUILDING 1 - COMPONENT BLOCK 2,0.00,0.00, ,26.41,26.41,26.41,0.00,180.00,6.95,3.80,,,,,,,,,,,4
Shading Surface,Mir-BUILDING 1 - COMPONENT BLOCK 2 - SURFACE 4 (68),Detached Shading:Building,,None,TRANSMITTANCE SCHEDULE FOR BUILDING 1 - COMPONENT BLOCK 2,0.00,0.00, ,26.41,26.41,26.41,180.00,0.00,6.95,3.80,,,,,,,,,,,4
Shading Surface,BUILDING 1 - COMPONENT BLOCK 2 - SURFACE 5 (69),Detached Shading:Building,,None,TRANSMITTANCE SCHEDULE FOR BUILDING 1 - COMPONENT BLOCK 2,0.00,0.00, ,30.35,30.35,30.35,0.00,180.00,9.79,3.10,,,,,,,,,,,4
Shading Surface,Mir-BUILDING 1 - COMPONENT BLOCK 2 - SURFACE 5 (69),Detached Shading:Building,,None,TRANSMITTANCE SCHEDULE FOR BUILDING 1 - COMPONENT BLOCK 2,0.00,0.00, ,30.35,30.35,30.35,180.00,0.00,9.79,3.10,,,,,,,,,,,4
Shading Surface,BUILDING 1 - COMPONENT BLOCK 2 - SURFACE 6 (70),Detached Shading:Building,,None,TRANSMITTANCE SCHEDULE FOR BUILDING 1 - COMPONENT BLOCK 2,0.00,0.00, ,47.96,47.96,47.96,0.00,180.00,6.95,6.90,,,,,,,,,,,4
Shading Surface,Mir-BUILDING 1 - COMPONENT BLOCK 2 - SURFACE 6 (70),Detached Shading:Building,,None,TRANSMITTANCE SCHEDULE FOR BUILDING 1 - COMPONENT BLOCK 2,0.00,0.00, ,47.96,47.96,47.96,180.00,0.00,6.95,6.90,,,,,,,,,,,4
Shading Surface,BUILDING 1 - COMPONENT BLOCK 2 - SURFACE 7 (71),Detached Shading:Building,,None,TRANSMITTANCE SCHEDULE FOR BUILDING 1 - COMPONENT BLOCK 2,0.00,0.00, ,24.33,24.33,24.33,0.00,90.00,6.95,3.50,,,,,,,,,,,4
Shading Surface,Mir-BUILDING 1 - COMPONENT BLOCK 2 - SURFACE 7 (71),Detached Shading:Building,,None,TRANSMITTANCE SCHEDULE FOR BUILDING 1 - COMPONENT BLOCK 2,0.00,0.00, ,24.33,24.33,24.33,180.00,90.00,6.95,3.50,,,,,,,,,,,4
Shading Surface,BUILDING 1 - COMPONENT BLOCK 2 - SURFACE 8 (72),Detached Shading:Building,,None,TRANSMITTANCE SCHEDULE FOR BUILDING 1 - COMPONENT BLOCK 2,0.00,0.00, ,13.30,13.30,13.30,90.00,90.00,3.80,3.50,,,,,,,,,,,4
Shading Surface,Mir-BUILDING 1 - COMPONENT BLOCK 2 - SURFACE 8 (72),Detached Shading:Building,,None,TRANSMITTANCE SCHEDULE FOR BUILDING 1 - COMPONENT BLOCK 2,0.00,0.00, ,13.30,13.30,13.30,270.00,90.00,3.80,3.50,,,,,,,,,,,4
Shading Surface,BUILDING 1 - COMPONENT BLOCK 2 - SURFACE 9 (73),Detached Shading:Building,,None,TRANSMITTANCE SCHEDULE FOR BUILDING 1 - COMPONENT BLOCK 2,0.00,0.00, ,9.94,9.94,9.94,0.00,90.00,2.84,3.50,,,,,,,,,,,4
Shading Surface,Mir-BUILDING 1 - COMPONENT BLOCK 2 - SURFACE 9 (73),Detached Shading:Building,,None,TRANSMITTANCE SCHEDULE FOR BUILDING 1 - COMPONENT BLOCK 2,0.00,0.00, ,9.94,9.94,9.94,180.00,90.00,2.84,3.50,,,,,,,,,,,4
Shading Surface,BUILDING 1 - COMPONENT BLOCK 2 - SURFACE 10 (74),Detached Shading:Building,,None,TRANSMITTANCE SCHEDULE FOR BUILDING 1 - COMPONENT BLOCK 2,0.00,0.00, ,13.30,13.30,13.30,270.00,90.00,3.80,3.50,,,,,,,,,,,4
Shading Surface,Mir-BUILDING 1 - COMPONENT BLOCK 2 - SURFACE 10 (74),Detached Shading:Building,,None,TRANSMITTANCE SCHEDULE FOR BUILDING 1 - COMPONENT BLOCK 2,0.00,0.00, ,13.30,13.30,13.30,90.00,90.00,3.80,3.50,,,,,,,,,,,4
Shading Surface,BUILDING 1 - COMPONENT BLOCK 2 - SURFACE 11 (75),Detached Shading:Building,,None,TRANSMITTANCE SCHEDULE FOR BUILDING 1 - COMPONENT BLOCK 2,0.00,0.00, ,24.33,24.33,24.33,0.00,90.00,6.95,3.50,,,,,,,,,,,4
Shading Surface,Mir-BUILDING 1 - COMPONENT BLOCK 2 - SURFACE 11 (75),Detached Shading:Building,,None,TRANSMITTANCE SCHEDULE FOR BUILDING 1 - COMPONENT BLOCK 2,0.00,0.00, ,24.33,24.33,24.33,180.00,90.00,6.95,3.50,,,,,,,,,,,4
Shading Surface,BUILDING 1 - COMPONENT BLOCK 2 - SURFACE 12 (76),Detached Shading:Building,,None,TRANSMITTANCE SCHEDULE FOR BUILDING 1 - COMPONENT BLOCK 2,0.00,0.00, ,24.15,24.15,24.15,90.00,90.00,6.90,3.50,,,,,,,,,,,4
Shading Surface,Mir-BUILDING 1 - COMPONENT BLOCK 2 - SURFACE 12 (76),Detached Shading:Building,,None,TRANSMITTANCE SCHEDULE FOR BUILDING 1 - COMPONENT BLOCK 2,0.00,0.00, ,24.15,24.15,24.15,270.00,90.00,6.90,3.50,,,,,,,,,,,4
Shading Surface,BUILDING 1 - COMPONENT BLOCK 2 - SURFACE 13 (77),Detached Shading:Building,,None,TRANSMITTANCE SCHEDULE FOR BUILDING 1 - COMPONENT BLOCK 2,0.00,0.00, ,58.59,58.59,58.59,180.00,90.00,16.74,3.50,,,,,,,,,,,4
Shading Surface,Mir-BUILDING 1 - COMPONENT BLOCK 2 - SURFACE 13 (77),Detached Shading:Building,,None,TRANSMITTANCE SCHEDULE FOR BUILDING 1 - COMPONENT BLOCK 2,0.00,0.00, ,58.59,58.59,58.59,0.00,90.00,16.74,3.50,,,,,,,,,,,4
Shading Surface,BUILDING 1 - COMPONENT BLOCK 2 - SURFACE 14 (78),Detached Shading:Building,,None,TRANSMITTANCE SCHEDULE FOR BUILDING 1 - COMPONENT BLOCK 2,0.00,0.00, ,24.15,24.15,24.15,270.00,90.00,6.90,3.50,,,,,,,,,,,4
Shading Surface,Mir-BUILDING 1 - COMPONENT BLOCK 2 - SURFACE 14 (78),Detached Shading:Building,,None,TRANSMITTANCE SCHEDULE FOR BUILDING 1 - COMPONENT BLOCK 2,0.00,0.00, ,24.15,24.15,24.15,90.00,90.00,6.90,3.50,,,,,,,,,,,4
Shading Surface,BUILDING 1 - COMPONENT BLOCK 3 - SURFACE 1 (79),Detached Shading:Building,,None,TRANSMITTANCE SCHEDULE FOR BUILDING 1 - COMPONENT BLOCK 3,0.00,0.00, ,13.80,13.80,13.80,0.00,180.00,2.00,6.90,,,,,,,,,,,4
Shading Surface,Mir-BUILDING 1 - COMPONENT BLOCK 3 - SURFACE 1 (79),Detached Shading:Building,,None,TRANSMITTANCE SCHEDULE FOR BUILDING 1 - COMPONENT BLOCK 3,0.00,0.00, ,13.80,13.80,13.80,180.00,0.00,2.00,6.90,,,,,,,,,,,4
Shading Surface,BUILDING 1 - COMPONENT BLOCK 3 - SURFACE 2 (80),Detached Shading:Building,,None,TRANSMITTANCE SCHEDULE FOR BUILDING 1 - COMPONENT BLOCK 3,0.00,0.00, ,13.80,13.80,13.80,180.00,0.00,2.00,6.90,,,,,,,,,,,4
Shading Surface,Mir-BUILDING 1 - COMPONENT BLOCK 3 - SURFACE 2 (80),Detached Shading:Building,,None,TRANSMITTANCE SCHEDULE FOR BUILDING 1 - COMPONENT BLOCK 3,0.00,0.00, ,13.80,13.80,13.80,0.00,180.00,2.00,6.90,,,,,,,,,,,4
Shading Surface,BUILDING 1 - COMPONENT BLOCK 3 - SURFACE 3 (81),Detached Shading:Building,,None,TRANSMITTANCE SCHEDULE FOR BUILDING 1 - COMPONENT BLOCK 3,0.00,0.00, ,19.40,19.40,19.40,0.00,90.00,2.00,9.70,,,,,,,,,,,4
Shading Surface,Mir-BUILDING 1 - COMPONENT BLOCK 3 - SURFACE 3 (81),Detached Shading:Building,,None,TRANSMITTANCE SCHEDULE FOR BUILDING 1 - COMPONENT BLOCK 3,0.00,0.00, ,19.40,19.40,19.40,180.00,90.00,2.00,9.70,,,,,,,,,,,4
Shading Surface,BUILDING 1 - COMPONENT BLOCK 3 - SURFACE 4 (82),Detached Shading:Building,,None,TRANSMITTANCE SCHEDULE FOR BUILDING 1 - COMPONENT BLOCK 3,0.00,0.00, ,66.93,66.93,66.93,270.00,90.00,6.90,9.70,,,,,,,,,,,4
Shading Surface,Mir-BUILDING 1 - COMPONENT BLOCK 3 - SURFACE 4 (82),Detached Shading:Building,,None,TRANSMITTANCE SCHEDULE FOR BUILDING 1 - COMPONENT BLOCK 3,0.00,0.00, ,66.93,66.93,66.93,90.00,90.00,6.90,9.70,,,,,,,,,,,4
Shading Surface,BUILDING 1 - COMPONENT BLOCK 3 - SURFACE 5 (83),Detached Shading:Building,,None,TRANSMITTANCE SCHEDULE FOR BUILDING 1 - COMPONENT BLOCK 3,0.00,0.00, ,19.40,19.40,19.40,180.00,90.00,2.00,9.70,,,,,,,,,,,4
Shading Surface,Mir-BUILDING 1 - COMPONENT BLOCK 3 - SURFACE 5 (83),Detached Shading:Building,,None,TRANSMITTANCE SCHEDULE FOR BUILDING 1 - COMPONENT BLOCK 3,0.00,0.00, ,19.40,19.40,19.40,0.00,90.00,2.00,9.70,,,,,,,,,,,4
Shading Surface,BUILDING 1 - COMPONENT BLOCK 3 - SURFACE 6 (84),Detached Shading:Building,,None,TRANSMITTANCE SCHEDULE FOR BUILDING 1 - COMPONENT BLOCK 3,0.00,0.00, ,66.93,66.93,66.93,90.00,90.00,6.90,9.70,,,,,,,,,,,4
Shading Surface,Mir-BUILDING 1 - COMPONENT BLOCK 3 - SURFACE 6 (84),Detached Shading:Building,,None,TRANSMITTANCE SCHEDULE FOR BUILDING 1 - COMPONENT BLOCK 3,0.00,0.00, ,66.93,66.93,66.93,270.00,90.00,6.90,9.70,,,,,,,,,,,4
Shading Surface,BUILDING 1 - COMPONENT BLOCK 4 - SURFACE 1 (85),Detached Shading:Building,,None,TRANSMITTANCE SCHEDULE FOR BUILDING 1 - COMPONENT BLOCK 4,0.00,0.00, ,13.80,13.80,13.80,0.00,180.00,2.00,6.90,,,,,,,,,,,4
Shading Surface,Mir-BUILDING 1 - COMPONENT BLOCK 4 - SURFACE 1 (85),Detached Shading:Building,,None,TRANSMITTANCE SCHEDULE FOR BUILDING 1 - COMPONENT BLOCK 4,0.00,0.00, ,13.80,13.80,13.80,180.00,0.00,2.00,6.90,,,,,,,,,,,4
Shading Surface,BUILDING 1 - COMPONENT BLOCK 4 - SURFACE 2 (86),Detached Shading:Building,,None,TRANSMITTANCE SCHEDULE FOR BUILDING 1 - COMPONENT BLOCK 4,0.00,0.00, ,13.80,13.80,13.80,180.00,0.00,2.00,6.90,,,,,,,,,,,4
Shading Surface,Mir-BUILDING 1 - COMPONENT BLOCK 4 - SURFACE 2 (86),Detached Shading:Building,,None,TRANSMITTANCE SCHEDULE FOR BUILDING 1 - COMPONENT BLOCK 4,0.00,0.00, ,13.80,13.80,13.80,0.00,180.00,2.00,6.90,,,,,,,,,,,4
Shading Surface,BUILDING 1 - COMPONENT BLOCK 4 - SURFACE 3 (87),Detached Shading:Building,,None,TRANSMITTANCE SCHEDULE FOR BUILDING 1 - COMPONENT BLOCK 4,0.00,0.00, ,19.40,19.40,19.40,0.00,90.00,2.00,9.70,,,,,,,,,,,4
Shading Surface,Mir-BUILDING 1 - COMPONENT BLOCK 4 - SURFACE 3 (87),Detached Shading:Building,,None,TRANSMITTANCE SCHEDULE FOR BUILDING 1 - COMPONENT BLOCK 4,0.00,0.00, ,19.40,19.40,19.40,180.00,90.00,2.00,9.70,,,,,,,,,,,4
Shading Surface,BUILDING 1 - COMPONENT BLOCK 4 - SURFACE 4 (88),Detached Shading:Building,,None,TRANSMITTANCE SCHEDULE FOR BUILDING 1 - COMPONENT BLOCK 4,0.00,0.00, ,66.93,66.93,66.93,270.00,90.00,6.90,9.70,,,,,,,,,,,4
Shading Surface,Mir-BUILDING 1 - COMPONENT BLOCK 4 - SURFACE 4 (88),Detached Shading:Building,,None,TRANSMITTANCE SCHEDULE FOR BUILDING 1 - COMPONENT BLOCK 4,0.00,0.00, ,66.93,66.93,66.93,90.00,90.00,6.90,9.70,,,,,,,,,,,4
Shading Surface,BUILDING 1 - COMPONENT BLOCK 4 - SURFACE 5 (89),Detached Shading:Building,,None,TRANSMITTANCE SCHEDULE FOR BUILDING 1 - COMPONENT BLOCK 4,0.00,0.00, ,19.40,19.40,19.40,180.00,90.00,2.00,9.70,,,,,,,,,,,4
Shading Surface,Mir-BUILDING 1 - COMPONENT BLOCK 4 - SURFACE 5 (89),Detached Shading:Building,,None,TRANSMITTANCE SCHEDULE FOR BUILDING 1 - COMPONENT BLOCK 4,0.00,0.00, ,19.40,19.40,19.40,0.00,90.00,2.00,9.70,,,,,,,,,,,4
Shading Surface,BUILDING 1 - COMPONENT BLOCK 4 - SURFACE 6 (90),Detached Shading:Building,,None,TRANSMITTANCE SCHEDULE FOR BUILDING 1 - COMPONENT BLOCK 4,0.00,0.00, ,66.93,66.93,66.93,90.00,90.00,6.90,9.70,,,,,,,,,,,4
Shading Surface,Mir-BUILDING 1 - COMPONENT BLOCK 4 - SURFACE 6 (90),Detached Shading:Building,,None,TRANSMITTANCE SCHEDULE FOR BUILDING 1 - COMPONENT BLOCK 4,0.00,0.00, ,66.93,66.93,66.93,270.00,90.00,6.90,9.70,,,,,,,,,,,4
Zone Surfaces,BLOCK1:ZONE1,10
HeatTransfer Surface,BLOCK1:ZONE1_PARTITION_2_0_0,Wall,,CTF - ConductionTransferFunction,GBXML R-O METAL FRAME WALL - AIMO779,3.360,2.236,,4.81,4.81,4.81,90.00,90.00,1.78,2.70,0.00,BLOCK1:ZONE3_PARTITION_4_0_10002,Other/Same Surface Int Conv,ASHRAETARP,NoSun,NoWind,0.00,0.50,0.50,0.50,4
HeatTransfer Surface,BLOCK1:ZONE1_WALL_3_0_0,Wall,,CTF - ConductionTransferFunction,GBXML R-O 8 IN CMU WALL - AIMO8O8,6.453,3.282,,11.15,12.02,11.30,0.00,90.00,4.45,2.70,0.00,ExternalEnvironment,DOE-2,ASHRAETARP,SunExposed,WindExposed,0.50,0.50,0.50,0.50,4
HeatTransfer Surface,BLOCK1:ZONE1_WALL_3_0_0_0_0_0_WIN,Window,BLOCK1:ZONE1_WALL_3_0_0,Window5 Detailed Fenestration,1001,N/A,5.575,No,0.69,0.72,0.72,0.00,90.00,0.90,0.80,0.00,ExternalEnvironment,DOE-2,ASHRAETARP,SunExposed,WindExposed,0.50,0.50,0.50,0.50,4
Frame/Divider Surface,1,Frame,BLOCK1:ZONE1_WALL_3_0_0_0_0_0_WIN,Window5 Detailed Fenestration,,N/A,N/A,,0.14,0.14,*,N/A,N/A,4.00E-002,N/A
Frame/Divider Surface,1,Divider:DividedLite,BLOCK1:ZONE1_WALL_3_0_0_0_0_0_WIN,,,N/A,N/A,,3.36E-002,3.36E-002,*,N/A,N/A,2.00E-002,N/A
HeatTransfer Surface,BLOCK1:ZONE1_PARTITION_4_0_0,Wall,,CTF - ConductionTransferFunction,PROJECT PARTITION,2.857,2.001,,10.26,10.26,10.26,270.00,90.00,3.80,2.70,0.00,BLOCK1:ZONE1_PARTITION_4_0_0,Other/Same Surface Int Conv,ASHRAETARP,NoSun,NoWind,0.00,0.50,0.50,0.50,4
HeatTransfer Surface,BLOCK1:ZONE1_PARTITION_5_0_0,Wall,,CTF - ConductionTransferFunction,GBXML R-O METAL FRAME WALL - AIMO779,3.360,2.236,,8.38,12.02,8.38,180.00,90.00,4.45,2.70,0.00,BLOCK1:ZONE2_PARTITION_3_0_10004,Other/Same Surface Int Conv,ASHRAETARP,NoSun,NoWind,0.00,0.50,0.50,0.50,4
HeatTransfer Surface,BLOCK1:ZONE1_PARTITION_5_0_0_0_0_0_DOOR,Door,BLOCK1:ZONE1_PARTITION_5_0_0,CTF - ConductionTransferFunction,GBXML WOODEN - AIMO842,3.989,3.989,,3.64,3.64,3.64,180.00,90.00,1.88,1.94,0.00,BLOCK1:ZONE2_PARTITION_3_0_0_0_0_0_DOOR_10006,Other/Same Surface Int Conv,ASHRAETARP,NoSun,NoWind,0.00,0.50,0.50,0.50,4
HeatTransfer Surface,BLOCK1:ZONE1_PARTITION_6_0_0,Wall,,CTF - ConductionTransferFunction,GBXML R-O METAL FRAME WALL - AIMO779,3.360,2.236,,1.87,5.45,1.87,90.00,90.00,2.02,2.70,0.00,BLOCK1:ZONE5_PARTITION_6_0_10006,Other/Same Surface Int Conv,ASHRAETARP,NoSun,NoWind,0.00,0.50,0.50,0.50,4
HeatTransfer Surface,BLOCK1:ZONE1_PARTITION_6_0_0_0_0_0_DOOR,Door,BLOCK1:ZONE1_PARTITION_6_0_0,CTF - ConductionTransferFunction,GBXML WOODEN - AIMO842,3.989,3.989,,3.59,3.59,3.59,90.00,90.00,1.87,1.92,0.00,BLOCK1:ZONE5_PARTITION_6_0_0_0_0_0_DOOR_10008,Other/Same Surface Int Conv,ASHRAETARP,NoSun,NoWind,0.00,0.50,0.50,0.50,4
HeatTransfer Surface,BLOCK1:ZONE1_FLOOR_0_0_0,Floor,,CTF - ConductionTransferFunction,PROJECT INTERNAL FLOOR,14.000,3.180,,16.91,16.91,16.91,0.00,180.00,4.45,3.80,0.00,BLOCK1:ZONE1_FLOOR_0_0_0,Other/Same Surface Int Conv,ASHRAETARP,NoSun,NoWind,0.00,0.00,1.00,0.00,4
HeatTransfer Surface,BLOCK1:ZONE1_CEILING_1_0_0,Roof,,CTF - ConductionTransferFunction,PROJECT INTERNAL FLOOR_REVERSED,14.000,3.848,,16.91,16.91,16.91,180.00,0.00,4.45,3.80,0.00,BLOCK1:ZONE1_CEILING_1_0_0,Other/Same Surface Int Conv,ASHRAETARP,NoSun,NoWind,0.00,1.00,0.00,1.00,4
Zone Surfaces,BLOCK1:ZONE3,12
HeatTransfer Surface,BLOCK1:ZONE3_PARTITION_4_0_10002,Wall,,CTF - ConductionTransferFunction,GBXML R-O METAL FRAME WALL - AIMO779_REV,3.360,2.236,,4.81,4.81,4.81,270.00,90.00,1.78,2.70,0.00,BLOCK1:ZONE1_PARTITION_2_0_0,Other/Same Surface Int Conv,ASHRAETARP,NoSun,NoWind,0.00,0.50,0.50,0.50,4
HeatTransfer Surface,BLOCK1:ZONE3_WALL_2_0_0,Wall,,CTF - ConductionTransferFunction,GBXML R-O 8 IN CMU WALL - AIMO8O8,6.453,3.282,,3.89,3.89,3.89,90.00,90.00,1.44,2.70,0.00,ExternalEnvironment,DOE-2,ASHRAETARP,SunExposed,WindExposed,0.50,0.50,0.50,0.50,4
HeatTransfer Surface,BLOCK1:ZONE3_WALL_3_0_0,Wall,,CTF - ConductionTransferFunction,GBXML R-O 8 IN CMU WALL - AIMO8O8,6.453,3.282,,5.89,6.75,6.03,0.00,90.00,2.50,2.70,0.00,ExternalEnvironment,DOE-2,ASHRAETARP,SunExposed,WindExposed,0.50,0.50,0.50,0.50,4
HeatTransfer Surface,BLOCK1:ZONE3_WALL_3_0_0_0_0_0_WIN,Window,BLOCK1:ZONE3_WALL_3_0_0,Window5 Detailed Fenestration,1001,N/A,5.575,No,0.69,0.72,0.72,0.00,90.00,0.90,0.80,0.00,ExternalEnvironment,DOE-2,ASHRAETARP,SunExposed,WindExposed,0.50,0.50,0.50,0.50,4
Frame/Divider Surface,1,Frame,BLOCK1:ZONE3_WALL_3_0_0_0_0_0_WIN,Window5 Detailed Fenestration,,N/A,N/A,,0.14,0.14,*,N/A,N/A,4.00E-002,N/A
Frame/Divider Surface,1,Divider:DividedLite,BLOCK1:ZONE3_WALL_3_0_0_0_0_0_WIN,,,N/A,N/A,,3.36E-002,3.36E-002,*,N/A,N/A,2.00E-002,N/A
HeatTransfer Surface,BLOCK1:ZONE3_PARTITION_5_0_0,Wall,,CTF - ConductionTransferFunction,GBXML R-O METAL FRAME WALL - AIMO779,3.360,2.236,,1.14,2.75,1.14,180.00,90.00,1.02,2.70,0.00,BLOCK1:ZONE5_PARTITION_5_0_10012,Other/Same Surface Int Conv,ASHRAETARP,NoSun,NoWind,0.00,0.50,0.50,0.50,4
HeatTransfer Surface,BLOCK1:ZONE3_PARTITION_5_0_0_0_0_0_DOOR,Door,BLOCK1:ZONE3_PARTITION_5_0_0,CTF - ConductionTransferFunction,GBXML WOODEN - AIMO842,3.989,3.989,,1.61,1.61,1.61,180.00,90.00,0.84,1.92,0.00,BLOCK1:ZONE5_PARTITION_5_0_0_0_0_0_DOOR_10014,Other/Same Surface Int Conv,ASHRAETARP,NoSun,NoWind,0.00,0.50,0.50,0.50,4
HeatTransfer Surface,BLOCK1:ZONE3_PARTITION_6_0_0,Wall,,CTF - ConductionTransferFunction,GBXML R-O METAL FRAME WALL - AIMO779,3.360,2.236,,0.92,0.92,0.92,90.00,90.00,0.34,2.70,0.00,BLOCK1:ZONE4_PARTITION_4_0_10014,Other/Same Surface Int Conv,ASHRAETARP,NoSun,NoWind,0.00,0.50,0.50,0.50,4
HeatTransfer Surface,BLOCK1:ZONE3_PARTITION_7_0_0,Wall,,CTF - ConductionTransferFunction,GBXML R-O METAL FRAME WALL - AIMO779,3.360,2.236,,4.00,4.00,4.00,180.00,90.00,1.48,2.70,0.00,BLOCK1:ZONE4_PARTITION_3_0_10015,Other/Same Surface Int Conv,ASHRAETARP,NoSun,NoWind,0.00,0.50,0.50,0.50,4
HeatTransfer Surface,BLOCK1:ZONE3_FLOOR_0_0_0,Floor,,CTF - ConductionTransferFunction,PROJECT INTERNAL FLOOR,14.000,3.180,,2.13,2.13,2.13,0.00,180.00,1.48,1.44,0.00,BLOCK1:ZONE3_FLOOR_0_0_0,Other/Same Surface Int Conv,ASHRAETARP,NoSun,NoWind,0.00,0.00,1.00,0.00,4
HeatTransfer Surface,BLOCK1:ZONE3_FLOOR_0_0_1,Floor,,CTF - ConductionTransferFunction,PROJECT INTERNAL FLOOR,14.000,3.180,,1.82,1.82,1.82,0.00,180.00,1.02,1.78,0.00,BLOCK1:ZONE3_FLOOR_0_0_1,Other/Same Surface Int Conv,ASHRAETARP,NoSun,NoWind,0.00,0.00,1.00,0.00,4
HeatTransfer Surface,BLOCK1:ZONE3_CEILING_1_0_0,Roof,,CTF - ConductionTransferFunction,PROJECT INTERNAL FLOOR_REVERSED,14.000,3.848,,0.35,0.35,0.35,180.00,0.00,1.02,0.34,0.00,BLOCK1:ZONE3_CEILING_1_0_0,Other/Same Surface Int Conv,ASHRAETARP,NoSun,NoWind,0.00,1.00,0.00,1.00,4
HeatTransfer Surface,BLOCK1:ZONE3_CEILING_1_0_1,Roof,,CTF - ConductionTransferFunction,PROJECT INTERNAL FLOOR_REVERSED,14.000,3.848,,3.60,3.60,3.60,180.00,0.00,2.50,1.44,0.00,BLOCK1:ZONE3_CEILING_1_0_1,Other/Same Surface Int Conv,ASHRAETARP,NoSun,NoWind,0.00,1.00,0.00,1.00,4
Zone Surfaces,BLOCK1:ZONE5,21
HeatTransfer Surface,BLOCK1:ZONE5_PARTITION_6_0_10006,Wall,,CTF - ConductionTransferFunction,GBXML R-O METAL FRAME WALL - AIMO779_REV,3.360,2.236,,1.87,5.45,1.87,270.00,90.00,2.02,2.70,0.00,BLOCK1:ZONE1_PARTITION_6_0_0,Other/Same Surface Int Conv,ASHRAETARP,NoSun,NoWind,0.00,0.50,0.50,0.50,4
HeatTransfer Surface,BLOCK1:ZONE5_PARTITION_6_0_0_0_0_0_DOOR_10008,Door,BLOCK1:ZONE5_PARTITION_6_0_10006,CTF - ConductionTransferFunction,GBXML WOODEN - AIMO842_REV,3.989,3.989,,3.59,3.59,3.59,270.00,90.00,1.87,1.92,0.00,BLOCK1:ZONE1_PARTITION_6_0_0_0_0_0_DOOR,Other/Same Surface Int Conv,ASHRAETARP,NoSun,NoWind,0.00,0.50,0.50,0.50,4
HeatTransfer Surface,BLOCK1:ZONE5_PARTITION_5_0_10012,Wall,,CTF - ConductionTransferFunction,GBXML R-O METAL FRAME WALL - AIMO779_REV,3.360,2.236,,1.14,2.75,1.14,0.00,90.00,1.02,2.70,0.00,BLOCK1:ZONE3_PARTITION_5_0_0,Other/Same Surface Int Conv,ASHRAETARP,NoSun,NoWind,0.00,0.50,0.50,0.50,4
HeatTransfer Surface,BLOCK1:ZONE5_PARTITION_5_0_0_0_0_0_DOOR_10014,Door,BLOCK1:ZONE5_PARTITION_5_0_10012,CTF - ConductionTransferFunction,GBXML WOODEN - AIMO842_REV,3.989,3.989,,1.61,1.61,1.61,0.00,90.00,0.84,1.92,0.00,BLOCK1:ZONE3_PARTITION_5_0_0_0_0_0_DOOR,Other/Same Surface Int Conv,ASHRAETARP,NoSun,NoWind,0.00,0.50,0.50,0.50,4
HeatTransfer Surface,BLOCK1:ZONE5_WALL_2_0_0,Wall,,CTF - ConductionTransferFunction,GBXML R-O 8 IN CMU WALL - AIMO8O8,6.453,3.282,,1.65,3.46,1.65,90.00,90.00,1.28,2.70,0.00,ExternalEnvironment,DOE-2,ASHRAETARP,SunExposed,WindExposed,0.50,0.50,0.50,0.50,4
HeatTransfer Surface,BLOCK1:ZONE5_WALL_2_0_0_0_0_0_DOOR,Door,BLOCK1:ZONE5_WALL_2_0_0,CTF - ConductionTransferFunction,GBXML WOODEN - AIMO842,3.989,3.989,,1.80,1.80,1.80,90.00,90.00,0.94,1.92,0.00,ExternalEnvironment,DOE-2,ASHRAETARP,SunExposed,WindExposed,0.50,0.50,0.50,0.50,4
HeatTransfer Surface,BLOCK1:ZONE5_PARTITION_3_0_0,Wall,,CTF - ConductionTransferFunction,GBXML R-O METAL FRAME WALL - AIMO779,3.360,2.236,,4.00,4.00,4.00,0.00,90.00,1.48,2.70,0.00,BLOCK1:ZONE4_PARTITION_6_0_10022,Other/Same Surface Int Conv,ASHRAETARP,NoSun,NoWind,0.00,0.50,0.50,0.50,4
HeatTransfer Surface,BLOCK1:ZONE5_PARTITION_4_0_0,Wall,,CTF - ConductionTransferFunction,GBXML R-O METAL FRAME WALL - AIMO779,3.360,2.236,,0.83,2.00,0.83,90.00,90.00,0.74,2.70,0.00,BLOCK1:ZONE4_PARTITION_5_0_10023,Other/Same Surface Int Conv,ASHRAETARP,NoSun,NoWind,0.00,0.50,0.50,0.50,4
HeatTransfer Surface,BLOCK1:ZONE5_PARTITION_4_0_0_0_0_0_DOOR,Door,BLOCK1:ZONE5_PARTITION_4_0_0,CTF - ConductionTransferFunction,GBXML WOODEN - AIMO842,3.989,3.989,,1.17,1.17,1.17,90.00,90.00,0.61,1.92,0.00,BLOCK1:ZONE4_PARTITION_5_0_0_0_0_0_DOOR_10025,Other/Same Surface Int Conv,ASHRAETARP,NoSun,NoWind,0.00,0.50,0.50,0.50,4
HeatTransfer Surface,BLOCK1:ZONE5_PARTITION_7_0_0,Wall,,CTF - ConductionTransferFunction,GBXML R-O METAL FRAME WALL - AIMO779,3.360,2.236,,4.69,8.37,4.69,270.00,90.00,3.10,2.70,0.00,BLOCK1:ZONE2_PARTITION_2_0_10025,Other/Same Surface Int Conv,ASHRAETARP,NoSun,NoWind,0.00,0.50,0.50,0.50,4
HeatTransfer Surface,BLOCK1:ZONE5_PARTITION_7_0_0_0_0_0_DOOR,Door,BLOCK1:ZONE5_PARTITION_7_0_0,CTF - ConductionTransferFunction,GBXML WOODEN - AIMO842,3.989,3.989,,3.68,3.68,3.68,270.00,90.00,1.89,1.95,0.00,BLOCK1:ZONE2_PARTITION_2_0_0_0_0_0_DOOR_10027,Other/Same Surface Int Conv,ASHRAETARP,NoSun,NoWind,0.00,0.50,0.50,0.50,4
HeatTransfer Surface,BLOCK1:ZONE5_WALL_8_0_0,Wall,,CTF - ConductionTransferFunction,GBXML R-O 8 IN CMU WALL - AIMO8O8,6.453,3.282,,7.07,10.72,7.37,180.00,90.00,3.97,2.70,0.00,ExternalEnvironment,DOE-2,ASHRAETARP,SunExposed,WindExposed,0.50,0.50,0.50,0.50,4
HeatTransfer Surface,BLOCK1:ZONE5_WALL_8_0_0_0_0_0_WIN,Window,BLOCK1:ZONE5_WALL_8_0_0,Window5 Detailed Fenestration,1001,N/A,5.575,No,3.28,3.35,3.35,180.00,90.00,1.80,1.86,0.00,ExternalEnvironment,DOE-2,ASHRAETARP,SunExposed,WindExposed,0.50,0.50,0.50,0.50,4
Frame/Divider Surface,1,Frame,BLOCK1:ZONE5_WALL_8_0_0_0_0_0_WIN,Window5 Detailed Fenestration,,N/A,N/A,,0.30,0.30,*,N/A,N/A,4.00E-002,N/A
Frame/Divider Surface,1,Divider:DividedLite,BLOCK1:ZONE5_WALL_8_0_0_0_0_0_WIN,,,N/A,N/A,,7.28E-002,7.28E-002,*,N/A,N/A,2.00E-002,N/A
HeatTransfer Surface,BLOCK1:ZONE5_PARTITION_9_0_0,Wall,,CTF - ConductionTransferFunction,GBXML R-O METAL FRAME WALL - AIMO779,3.360,2.236,,8.37,8.37,8.37,90.00,90.00,3.10,2.70,0.00,BLOCK1:ZONE5_PARTITION_9_0_0,Other/Same Surface Int Conv,ASHRAETARP,NoSun,NoWind,0.00,0.50,0.50,0.50,4
HeatTransfer Surface,BLOCK1:ZONE5_WALL_10_0_0,Wall,,CTF - ConductionTransferFunction,GBXML R-O 8 IN CMU WALL - AIMO8O8,6.453,3.282,,3.97,3.97,3.97,0.00,90.00,1.47,2.70,0.00,ExternalEnvironment,DOE-2,ASHRAETARP,SunExposed,WindExposed,0.50,0.50,0.50,0.50,4
HeatTransfer Surface,BLOCK1:ZONE5_FLOOR_0_0_0,Floor,,CTF - ConductionTransferFunction,PROJECT INTERNAL FLOOR,14.000,3.180,,0.75,0.75,0.75,0.00,180.00,1.02,0.74,0.00,BLOCK1:ZONE5_FLOOR_0_0_0,Other/Same Surface Int Conv,ASHRAETARP,NoSun,NoWind,0.00,0.00,1.00,0.00,4
HeatTransfer Surface,BLOCK1:ZONE5_FLOOR_0_0_1,Floor,,CTF - ConductionTransferFunction,PROJECT INTERNAL FLOOR,14.000,3.180,,3.20,3.20,3.20,0.00,180.00,2.50,1.28,0.00,BLOCK1:ZONE5_FLOOR_0_0_1,Other/Same Surface Int Conv,ASHRAETARP,NoSun,NoWind,0.00,0.00,1.00,0.00,4
HeatTransfer Surface,BLOCK1:ZONE5_FLOOR_0_0_2,Floor,,CTF - ConductionTransferFunction,PROJECT INTERNAL FLOOR,14.000,3.180,,12.31,12.31,12.31,0.00,180.00,3.97,3.10,0.00,BLOCK1:ZONE5_FLOOR_0_0_2,Other/Same Surface Int Conv,ASHRAETARP,NoSun,NoWind,0.00,0.00,1.00,0.00,4
HeatTransfer Surface,BLOCK1:ZONE5_CEILING_1_0_0,Roof,,CTF - ConductionTransferFunction,PROJECT INTERNAL FLOOR_REVERSED,14.000,3.848,,4.56,4.56,4.56,180.00,0.00,1.47,3.10,0.00,BLOCK1:ZONE5_CEILING_1_0_0,Other/Same Surface Int Conv,ASHRAETARP,NoSun,NoWind,0.00,1.00,0.00,1.00,4
HeatTransfer Surface,BLOCK1:ZONE5_CEILING_1_0_1,Roof,,CTF - ConductionTransferFunction,PROJECT INTERNAL FLOOR_REVERSED,14.000,3.848,,6.48,6.48,6.48,180.00,0.00,1.48,4.38,0.00,BLOCK1:ZONE5_CEILING_1_0_1,Other/Same Surface Int Conv,ASHRAETARP,NoSun,NoWind,0.00,1.00,0.00,1.00,4
HeatTransfer Surface,BLOCK1:ZONE5_CEILING_1_0_2,Roof,,CTF - ConductionTransferFunction,PROJECT INTERNAL FLOOR_REVERSED,14.000,3.848,,5.22,5.22,5.22,180.00,0.00,1.02,5.12,0.00,BLOCK1:ZONE5_CEILING_1_0_2,Other/Same Surface Int Conv,ASHRAETARP,NoSun,NoWind,0.00,1.00,0.00,1.00,4
Zone Surfaces,BLOCK1:ZONE2,9
HeatTransfer Surface,BLOCK1:ZONE2_PARTITION_3_0_10004,Wall,,CTF - ConductionTransferFunction,GBXML R-O METAL FRAME WALL - AIMO779_REV,3.360,2.236,,8.38,12.02,8.38,0.00,90.00,4.45,2.70,0.00,BLOCK1:ZONE1_PARTITION_5_0_0,Other/Same Surface Int Conv,ASHRAETARP,NoSun,NoWind,0.00,0.50,0.50,0.50,4
HeatTransfer Surface,BLOCK1:ZONE2_PARTITION_3_0_0_0_0_0_DOOR_10006,Door,BLOCK1:ZONE2_PARTITION_3_0_10004,CTF - ConductionTransferFunction,GBXML WOODEN - AIMO842_REV,3.989,3.989,,3.64,3.64,3.64,0.00,90.00,1.88,1.94,0.00,BLOCK1:ZONE1_PARTITION_5_0_0_0_0_0_DOOR,Other/Same Surface Int Conv,ASHRAETARP,NoSun,NoWind,0.00,0.50,0.50,0.50,4
HeatTransfer Surface,BLOCK1:ZONE2_PARTITION_2_0_10025,Wall,,CTF - ConductionTransferFunction,GBXML R-O METAL FRAME WALL - AIMO779_REV,3.360,2.236,,4.69,8.37,4.69,90.00,90.00,3.10,2.70,0.00,BLOCK1:ZONE5_PARTITION_7_0_0,Other/Same Surface Int Conv,ASHRAETARP,NoSun,NoWind,0.00,0.50,0.50,0.50,4
HeatTransfer Surface,BLOCK1:ZONE2_PARTITION_2_0_0_0_0_0_DOOR_10027,Door,BLOCK1:ZONE2_PARTITION_2_0_10025,CTF - ConductionTransferFunction,GBXML WOODEN - AIMO842_REV,3.989,3.989,,3.68,3.68,3.68,90.00,90.00,1.89,1.95,0.00,BLOCK1:ZONE5_PARTITION_7_0_0_0_0_0_DOOR,Other/Same Surface Int Conv,ASHRAETARP,NoSun,NoWind,0.00,0.50,0.50,0.50,4
HeatTransfer Surface,BLOCK1:ZONE2_PARTITION_4_0_0,Wall,,CTF - ConductionTransferFunction,PROJECT PARTITION,2.857,2.001,,8.37,8.37,8.37,270.00,90.00,3.10,2.70,0.00,BLOCK1:ZONE2_PARTITION_4_0_0,Other/Same Surface Int Conv,ASHRAETARP,NoSun,NoWind,0.00,0.50,0.50,0.50,4
HeatTransfer Surface,BLOCK1:ZONE2_WALL_5_0_0,Wall,,CTF - ConductionTransferFunction,GBXML R-O 8 IN CMU WALL - AIMO8O8,6.453,3.282,,8.37,12.02,8.67,180.00,90.00,4.45,2.70,0.00,ExternalEnvironment,DOE-2,ASHRAETARP,SunExposed,WindExposed,0.50,0.50,0.50,0.50,4
HeatTransfer Surface,BLOCK1:ZONE2_WALL_5_0_0_0_0_0_WIN,Window,BLOCK1:ZONE2_WALL_5_0_0,Window5 Detailed Fenestration,1001,N/A,5.575,No,3.28,3.35,3.35,180.00,90.00,1.80,1.86,0.00,ExternalEnvironment,DOE-2,ASHRAETARP,SunExposed,WindExposed,0.50,0.50,0.50,0.50,4
Frame/Divider Surface,1,Frame,BLOCK1:ZONE2_WALL_5_0_0_0_0_0_WIN,Window5 Detailed Fenestration,,N/A,N/A,,0.30,0.30,*,N/A,N/A,4.00E-002,N/A
Frame/Divider Surface,1,Divider:DividedLite,BLOCK1:ZONE2_WALL_5_0_0_0_0_0_WIN,,,N/A,N/A,,7.28E-002,7.28E-002,*,N/A,N/A,2.00E-002,N/A
HeatTransfer Surface,BLOCK1:ZONE2_FLOOR_0_0_0,Floor,,CTF - ConductionTransferFunction,PROJECT INTERNAL FLOOR,14.000,3.180,,13.80,13.80,13.80,0.00,180.00,4.45,3.10,0.00,BLOCK1:ZONE2_FLOOR_0_0_0,Other/Same Surface Int Conv,ASHRAETARP,NoSun,NoWind,0.00,0.00,1.00,0.00,4
HeatTransfer Surface,BLOCK1:ZONE2_CEILING_1_0_0,Roof,,CTF - ConductionTransferFunction,PROJECT INTERNAL FLOOR_REVERSED,14.000,3.848,,13.80,13.80,13.80,180.00,0.00,4.45,3.10,0.00,BLOCK1:ZONE2_CEILING_1_0_0,Other/Same Surface Int Conv,ASHRAETARP,NoSun,NoWind,0.00,1.00,0.00,1.00,4
Zone Surfaces,BLOCK1:ZONE4,9
HeatTransfer Surface,BLOCK1:ZONE4_PARTITION_4_0_10014,Wall,,CTF - ConductionTransferFunction,GBXML R-O METAL FRAME WALL - AIMO779_REV,3.360,2.236,,0.92,0.92,0.92,270.00,90.00,0.34,2.70,0.00,BLOCK1:ZONE3_PARTITION_6_0_0,Other/Same Surface Int Conv,ASHRAETARP,NoSun,NoWind,0.00,0.50,0.50,0.50,4
HeatTransfer Surface,BLOCK1:ZONE4_PARTITION_3_0_10015,Wall,,CTF - ConductionTransferFunction,GBXML R-O METAL FRAME WALL - AIMO779_REV,3.360,2.236,,4.00,4.00,4.00,0.00,90.00,1.48,2.70,0.00,BLOCK1:ZONE3_PARTITION_7_0_0,Other/Same Surface Int Conv,ASHRAETARP,NoSun,NoWind,0.00,0.50,0.50,0.50,4
HeatTransfer Surface,BLOCK1:ZONE4_PARTITION_6_0_10022,Wall,,CTF - ConductionTransferFunction,GBXML R-O METAL FRAME WALL - AIMO779_REV,3.360,2.236,,4.00,4.00,4.00,180.00,90.00,1.48,2.70,0.00,BLOCK1:ZONE5_PARTITION_3_0_0,Other/Same Surface Int Conv,ASHRAETARP,NoSun,NoWind,0.00,0.50,0.50,0.50,4
HeatTransfer Surface,BLOCK1:ZONE4_PARTITION_5_0_10023,Wall,,CTF - ConductionTransferFunction,GBXML R-O METAL FRAME WALL - AIMO779_REV,3.360,2.236,,0.83,2.00,0.83,270.00,90.00,0.74,2.70,0.00,BLOCK1:ZONE5_PARTITION_4_0_0,Other/Same Surface Int Conv,ASHRAETARP,NoSun,NoWind,0.00,0.50,0.50,0.50,4
HeatTransfer Surface,BLOCK1:ZONE4_PARTITION_5_0_0_0_0_0_DOOR_10025,Door,BLOCK1:ZONE4_PARTITION_5_0_10023,CTF - ConductionTransferFunction,GBXML WOODEN - AIMO842_REV,3.989,3.989,,1.17,1.17,1.17,270.00,90.00,0.61,1.92,0.00,BLOCK1:ZONE5_PARTITION_4_0_0_0_0_0_DOOR,Other/Same Surface Int Conv,ASHRAETARP,NoSun,NoWind,0.00,0.50,0.50,0.50,4
HeatTransfer Surface,BLOCK1:ZONE4_WALL_2_0_0,Wall,,CTF - ConductionTransferFunction,GBXML R-O 8 IN CMU WALL - AIMO8O8,6.453,3.282,,2.92,2.92,2.92,90.00,90.00,1.08,2.70,0.00,ExternalEnvironment,DOE-2,ASHRAETARP,SunExposed,WindExposed,0.50,0.50,0.50,0.50,4
HeatTransfer Surface,EXTRA CRACK 1,Wall,,CTF - ConductionTransferFunction,LINK BODY,1.000,0.870,,0.50,0.50,0.50,180.00,0.00,1.00,1.41,0.00,ExternalEnvironment,DOE-2,ASHRAETARP,NoSun,NoWind,0.00,1.00,0.00,1.00,3
HeatTransfer Surface,BLOCK1:ZONE4_FLOOR_0_0_0,Floor,,CTF - ConductionTransferFunction,PROJECT INTERNAL FLOOR,14.000,3.180,,1.60,1.60,1.60,0.00,180.00,1.48,1.08,0.00,BLOCK1:ZONE4_FLOOR_0_0_0,Other/Same Surface Int Conv,ASHRAETARP,NoSun,NoWind,0.00,0.00,1.00,0.00,4
HeatTransfer Surface,BLOCK1:ZONE4_CEILING_1_0_0,Roof,,CTF - ConductionTransferFunction,PROJECT INTERNAL FLOOR_REVERSED,14.000,3.848,,1.60,1.60,1.60,180.00,0.00,1.48,1.08,0.00,BLOCK1:ZONE4_CEILING_1_0_0,Other/Same Surface Int Conv,ASHRAETARP,NoSun,NoWind,0.00,1.00,0.00,1.00,4
