Program Version,EnergyPlus, Version 9.6.0-f420c06a69, YMD=2022.04.20 10:46
