  0
SECTION
  2
ENTITIES
999
DXF created from EnergyPlus
999
Program Version,EnergyPlus, Version 9.6.0-f420c06a69, YMD=2022.03.09 11:56
999
Polygon Action,TRIANGULATE3DFACE
999
Color Scheme,Default
999
Text - True North
  0
TEXT
  8
1
  6
Continuous
 62
  3
 10
      -19.47000
 20
       -1.25000
 30
        0.10000
 40
 .25
  1
True North
 41
 0.0
  7
MONOTXT
210
0.0
220
0.0
230
1.0
999
Text - Building Title
  0
TEXT
  8
1
  6
Continuous
 62
  3
 10
      -22.47000
 20
       -5.25000
 30
        0.10000
 40
 .4
  1
Building - Building
 41
 0.0
  7
MONOTXT
210
0.0
220
0.0
230
1.0
999
North Arrow Stem
  0
3DFACE
  8
1
 62
  3
 10
      -18.47000
 20
       -1.25000
 30
        0.10000
 11
      -18.47000
 21
       -1.25000
 31
        0.00000
 12
      -18.47000
 22
       -4.25000
 32
        0.00000
 13
      -18.47000
 23
       -4.25000
 33
        0.10000
999
North Arrow Head 1
  0
3DFACE
  8
1
 62
  3
 10
      -18.47000
 20
       -1.25000
 30
        0.10000
 11
      -18.47000
 21
       -1.25000
 31
        0.00000
 12
      -18.97000
 22
       -2.11603
 32
        0.00000
 13
      -18.97000
 23
       -2.11603
 33
        0.10000
999
North Arrow Head 2
  0
3DFACE
  8
1
 62
  3
 10
      -18.47000
 20
       -1.25000
 30
        0.10000
 11
      -18.47000
 21
       -1.25000
 31
        0.00000
 12
      -17.97000
 22
       -2.11603
 32
        0.00000
 13
      -17.97000
 23
       -2.11603
 33
        0.10000
999
North Arrow Side 1
  0
3DFACE
  8
1
 62
  3
 10
      -18.97000
 20
        0.25000
 30
        0.10000
 11
      -18.97000
 21
        0.25000
 31
        0.00000
 12
      -18.97000
 22
       -0.75000
 32
        0.00000
 13
      -18.97000
 23
       -0.75000
 33
        0.10000
999
North Arrow Side 2
  0
3DFACE
  8
1
 62
  3
 10
      -18.97000
 20
        0.25000
 30
        0.10000
 11
      -18.97000
 21
        0.25000
 31
        0.00000
 12
      -17.97000
 22
       -0.75000
 32
        0.00000
 13
      -17.97000
 23
       -0.75000
 33
        0.10000
999
North Arrow Side 3
  0
3DFACE
  8
1
 62
  3
 10
      -17.97000
 20
        0.25000
 30
        0.10000
 11
      -17.97000
 21
        0.25000
 31
        0.00000
 12
      -17.97000
 22
       -0.75000
 32
        0.00000
 13
      -17.97000
 23
       -0.75000
 33
        0.10000
999
Zone Names
999
Zone=1:BLOCK1_ZONE1
999
Zone=2:BLOCK1_ZONE3
999
Zone=3:BLOCK1_ZONE5
999
Zone=4:BLOCK1_ZONE2
999
Zone=5:BLOCK1_ZONE4
999
Building Shading:EXT1
  0
3DFACE
  8
Building Shading
 62
195
 10
        1.42000
 20
        4.15000
 30
        2.70000
 11
        1.42000
 21
        2.71000
 31
        2.70000
 12
        2.90000
 22
        2.71000
 32
        2.70000
 13
        2.90000
 23
        4.15000
 33
        2.70000
999
Building Shading:Mir-EXT1
  0
3DFACE
  8
Building Shading
 62
195
 10
        2.90000
 20
        4.15000
 30
        2.70000
 11
        2.90000
 21
        2.71000
 31
        2.70000
 12
        1.42000
 22
        2.71000
 32
        2.70000
 13
        1.42000
 23
        4.15000
 33
        2.70000
999
Building Shading:EXT2
  0
3DFACE
  8
Building Shading
 62
195
 10
        2.90000
 20
        4.15000
 30
        2.70000
 11
        2.90000
 21
        2.37000
 31
        2.70000
 12
        3.92000
 22
        2.37000
 32
        2.70000
 13
        3.92000
 23
        4.15000
 33
        2.70000
999
Building Shading:Mir-EXT2
  0
3DFACE
  8
Building Shading
 62
195
 10
        3.92000
 20
        4.15000
 30
        2.70000
 11
        3.92000
 21
        2.37000
 31
        2.70000
 12
        2.90000
 22
        2.37000
 32
        2.70000
 13
        2.90000
 23
        4.15000
 33
        2.70000
999
Building Shading:EXT3
  0
3DFACE
  8
Building Shading
 62
195
 10
        3.92000
 20
        4.15000
 30
        2.70000
 11
        3.92000
 21
        4.15000
 31
        0.00000
 12
        1.42000
 22
        4.15000
 32
        0.00000
 13
        1.42000
 23
        4.15000
 33
        2.70000
999
Building Shading:Mir-EXT3
  0
3DFACE
  8
Building Shading
 62
195
 10
        1.42000
 20
        4.15000
 30
        2.70000
 11
        1.42000
 21
        4.15000
 31
        0.00000
 12
        3.92000
 22
        4.15000
 32
        0.00000
 13
        3.92000
 23
        4.15000
 33
        2.70000
999
Building Shading:EXT4
  0
3DFACE
  8
Building Shading
 62
195
 10
        1.42000
 20
        4.15000
 30
        2.70000
 11
        1.42000
 21
        4.15000
 31
        0.00000
 12
        1.42000
 22
        2.71000
 32
        0.00000
 13
        1.42000
 23
        2.71000
 33
        2.70000
999
Building Shading:Mir-EXT4
  0
3DFACE
  8
Building Shading
 62
195
 10
        1.42000
 20
        2.71000
 30
        2.70000
 11
        1.42000
 21
        2.71000
 31
        0.00000
 12
        1.42000
 22
        4.15000
 32
        0.00000
 13
        1.42000
 23
        4.15000
 33
        2.70000
999
Building Shading:EXT5
  0
3DFACE
  8
Building Shading
 62
195
 10
        3.92000
 20
        4.15000
 30
        2.70000
 11
        3.92000
 21
        0.35000
 31
        2.70000
 12
        8.37000
 22
        0.35000
 32
        2.70000
 13
        8.37000
 23
        4.15000
 33
        2.70000
999
Building Shading:Mir-EXT5
  0
3DFACE
  8
Building Shading
 62
195
 10
        8.37000
 20
        4.15000
 30
        2.70000
 11
        8.37000
 21
        0.35000
 31
        2.70000
 12
        3.92000
 22
        0.35000
 32
        2.70000
 13
        3.92000
 23
        4.15000
 33
        2.70000
999
Building Shading:EXT6
  0
3DFACE
  8
Building Shading
 62
195
 10
        8.37000
 20
        0.35000
 30
        2.70000
 11
        8.37000
 21
        0.35000
 31
        0.00000
 12
        8.37000
 22
        4.15000
 32
        0.00000
 13
        8.37000
 23
        4.15000
 33
        2.70000
999
Building Shading:Mir-EXT6
  0
3DFACE
  8
Building Shading
 62
195
 10
        8.37000
 20
        4.15000
 30
        2.70000
 11
        8.37000
 21
        4.15000
 31
        0.00000
 12
        8.37000
 22
        0.35000
 32
        0.00000
 13
        8.37000
 23
        0.35000
 33
        2.70000
999
Building Shading:EXT7
  0
3DFACE
  8
Building Shading
 62
195
 10
        8.37000
 20
        4.15000
 30
        2.70000
 11
        8.37000
 21
        4.15000
 31
        0.00000
 12
        3.92000
 22
        4.15000
 32
        0.00000
 13
        3.92000
 23
        4.15000
 33
        2.70000
999
Building Shading:Mir-EXT7
  0
3DFACE
  8
Building Shading
 62
195
 10
        3.92000
 20
        4.15000
 30
        2.70000
 11
        3.92000
 21
        4.15000
 31
        0.00000
 12
        8.37000
 22
        4.15000
 32
        0.00000
 13
        8.37000
 23
        4.15000
 33
        2.70000
999
Building Shading:EXT8
  0
3DFACE
  8
Building Shading
 62
195
 10
        2.90000
 20
        2.37000
 30
        2.70000
 11
        2.90000
 21
        1.63000
 31
        2.70000
 12
        3.92000
 22
        1.63000
 32
        2.70000
 13
        3.92000
 23
        2.37000
 33
        2.70000
999
Building Shading:Mir-EXT8
  0
3DFACE
  8
Building Shading
 62
195
 10
        3.92000
 20
        2.37000
 30
        2.70000
 11
        3.92000
 21
        1.63000
 31
        2.70000
 12
        2.90000
 22
        1.63000
 32
        2.70000
 13
        2.90000
 23
        2.37000
 33
        2.70000
999
Building Shading:EXT9
  0
3DFACE
  8
Building Shading
 62
195
 10
        1.42000
 20
        1.63000
 30
        2.70000
 11
        1.42000
 21
        0.35000
 31
        2.70000
 12
        3.92000
 22
        0.35000
 32
        2.70000
 13
        3.92000
 23
        1.63000
 33
        2.70000
999
Building Shading:Mir-EXT9
  0
3DFACE
  8
Building Shading
 62
195
 10
        3.92000
 20
        1.63000
 30
        2.70000
 11
        3.92000
 21
        0.35000
 31
        2.70000
 12
        1.42000
 22
        0.35000
 32
        2.70000
 13
        1.42000
 23
        1.63000
 33
        2.70000
999
Building Shading:EXT10
  0
3DFACE
  8
Building Shading
 62
195
 10
        0.05000
 20
        0.35000
 30
        2.70000
 11
        0.05000
 21
       -2.75000
 31
        2.70000
 12
        3.92000
 22
       -2.75000
 32
        2.70000
 13
        3.92000
 23
        0.35000
 33
        2.70000
999
Building Shading:Mir-EXT10
  0
3DFACE
  8
Building Shading
 62
195
 10
        3.92000
 20
        0.35000
 30
        2.70000
 11
        3.92000
 21
       -2.75000
 31
        2.70000
 12
        0.05000
 22
       -2.75000
 32
        2.70000
 13
        0.05000
 23
        0.35000
 33
        2.70000
999
Building Shading:EXT11
  0
3DFACE
  8
Building Shading
 62
195
 10
        1.42000
 20
        1.63000
 30
        2.70000
 11
        1.42000
 21
        1.63000
 31
        0.00000
 12
        1.42000
 22
        0.35000
 32
        0.00000
 13
        1.42000
 23
        0.35000
 33
        2.70000
999
Building Shading:Mir-EXT11
  0
3DFACE
  8
Building Shading
 62
195
 10
        1.42000
 20
        0.35000
 30
        2.70000
 11
        1.42000
 21
        0.35000
 31
        0.00000
 12
        1.42000
 22
        1.63000
 32
        0.00000
 13
        1.42000
 23
        1.63000
 33
        2.70000
999
Building Shading:EXT12
  0
3DFACE
  8
Building Shading
 62
195
 10
        1.42000
 20
        0.35000
 30
        2.70000
 11
        1.42000
 21
        0.35000
 31
        0.00000
 12
        0.05000
 22
        0.35000
 32
        0.00000
 13
        0.05000
 23
        0.35000
 33
        2.70000
999
Building Shading:Mir-EXT12
  0
3DFACE
  8
Building Shading
 62
195
 10
        0.05000
 20
        0.35000
 30
        2.70000
 11
        0.05000
 21
        0.35000
 31
        0.00000
 12
        1.42000
 22
        0.35000
 32
        0.00000
 13
        1.42000
 23
        0.35000
 33
        2.70000
999
Building Shading:EXT13
  0
3DFACE
  8
Building Shading
 62
195
 10
        0.05000
 20
       -2.75000
 30
        2.70000
 11
        0.05000
 21
       -2.75000
 31
        0.00000
 12
        3.92000
 22
       -2.75000
 32
        0.00000
 13
        3.92000
 23
       -2.75000
 33
        2.70000
999
Building Shading:Mir-EXT13
  0
3DFACE
  8
Building Shading
 62
195
 10
        3.92000
 20
       -2.75000
 30
        2.70000
 11
        3.92000
 21
       -2.75000
 31
        0.00000
 12
        0.05000
 22
       -2.75000
 32
        0.00000
 13
        0.05000
 23
       -2.75000
 33
        2.70000
999
Building Shading:EXT14
  0
3DFACE
  8
Building Shading
 62
195
 10
        3.92000
 20
        0.35000
 30
        2.70000
 11
        3.92000
 21
       -2.75000
 31
        2.70000
 12
        8.37000
 22
       -2.75000
 32
        2.70000
 13
        8.37000
 23
        0.35000
 33
        2.70000
999
Building Shading:Mir-EXT14
  0
3DFACE
  8
Building Shading
 62
195
 10
        8.37000
 20
        0.35000
 30
        2.70000
 11
        8.37000
 21
       -2.75000
 31
        2.70000
 12
        3.92000
 22
       -2.75000
 32
        2.70000
 13
        3.92000
 23
        0.35000
 33
        2.70000
999
Building Shading:EXT15
  0
3DFACE
  8
Building Shading
 62
195
 10
        8.37000
 20
       -2.75000
 30
        2.70000
 11
        8.37000
 21
       -2.75000
 31
        0.00000
 12
        8.37000
 22
        0.35000
 32
        0.00000
 13
        8.37000
 23
        0.35000
 33
        2.70000
999
Building Shading:Mir-EXT15
  0
3DFACE
  8
Building Shading
 62
195
 10
        8.37000
 20
        0.35000
 30
        2.70000
 11
        8.37000
 21
        0.35000
 31
        0.00000
 12
        8.37000
 22
       -2.75000
 32
        0.00000
 13
        8.37000
 23
       -2.75000
 33
        2.70000
999
Building Shading:EXT16
  0
3DFACE
  8
Building Shading
 62
195
 10
        3.92000
 20
       -2.75000
 30
        2.70000
 11
        3.92000
 21
       -2.75000
 31
        0.00000
 12
        8.37000
 22
       -2.75000
 32
        0.00000
 13
        8.37000
 23
       -2.75000
 33
        2.70000
999
Building Shading:Mir-EXT16
  0
3DFACE
  8
Building Shading
 62
195
 10
        8.37000
 20
       -2.75000
 30
        2.70000
 11
        8.37000
 21
       -2.75000
 31
        0.00000
 12
        3.92000
 22
       -2.75000
 32
        0.00000
 13
        3.92000
 23
       -2.75000
 33
        2.70000
999
Building Shading:EXT17
  0
3DFACE
  8
Building Shading
 62
195
 10
        1.42000
 20
        2.71000
 30
        2.70000
 11
        1.42000
 21
        1.63000
 31
        2.70000
 12
        2.90000
 22
        1.63000
 32
        2.70000
 13
        2.90000
 23
        2.71000
 33
        2.70000
999
Building Shading:Mir-EXT17
  0
3DFACE
  8
Building Shading
 62
195
 10
        2.90000
 20
        2.71000
 30
        2.70000
 11
        2.90000
 21
        1.63000
 31
        2.70000
 12
        1.42000
 22
        1.63000
 32
        2.70000
 13
        1.42000
 23
        2.71000
 33
        2.70000
999
Building Shading:EXT18
  0
3DFACE
  8
Building Shading
 62
195
 10
        1.42000
 20
        2.71000
 30
        2.70000
 11
        1.42000
 21
        2.71000
 31
        0.00000
 12
        1.42000
 22
        1.63000
 32
        0.00000
 13
        1.42000
 23
        1.63000
 33
        2.70000
999
Building Shading:Mir-EXT18
  0
3DFACE
  8
Building Shading
 62
195
 10
        1.42000
 20
        1.63000
 30
        2.70000
 11
        1.42000
 21
        1.63000
 31
        0.00000
 12
        1.42000
 22
        2.71000
 32
        0.00000
 13
        1.42000
 23
        2.71000
 33
        2.70000
999
Building Shading:POLYGON 1 OF BUILDING 1 - SHADING PLANE 1
  0
3DFACE
  8
Building Shading
 62
195
 10
       -2.90000
 20
        1.63000
 30
        0.00000
 11
       -2.90000
 21
        1.57000
 31
        0.00000
 12
       -2.90000
 22
        1.57000
 32
        2.50000
 13
       -2.90000
 23
        1.63000
 33
        2.50000
999
Building Shading:Mir-POLYGON 1 OF BUILDING 1 - SHADING PLANE 1
  0
3DFACE
  8
Building Shading
 62
195
 10
       -2.90000
 20
        1.63000
 30
        2.50000
 11
       -2.90000
 21
        1.57000
 31
        2.50000
 12
       -2.90000
 22
        1.57000
 32
        0.00000
 13
       -2.90000
 23
        1.63000
 33
        0.00000
999
Building Shading:POLYGON 1 OF BUILDING 1 - SHADING PLANE 2
  0
3DFACE
  8
Building Shading
 62
195
 10
       -2.90000
 20
        0.31000
 30
        2.50000
 11
       -2.90000
 21
        0.31000
 31
        0.00000
 12
       -1.52000
 22
        0.31000
 32
        0.00000
 13
       -1.52000
 23
        0.31000
 33
        2.50000
999
Building Shading:Mir-POLYGON 1 OF BUILDING 1 - SHADING PLANE 2
  0
3DFACE
  8
Building Shading
 62
195
 10
       -1.52000
 20
        0.31000
 30
        2.50000
 11
       -1.52000
 21
        0.31000
 31
        0.00000
 12
       -2.90000
 22
        0.31000
 32
        0.00000
 13
       -2.90000
 23
        0.31000
 33
        2.50000
999
Building Shading:POLYGON 1 OF BUILDING 1 - SHADING PLANE 3
  0
3DFACE
  8
Building Shading
 62
195
 10
        1.52000
 20
        0.31000
 30
        2.50000
 11
        1.52000
 21
        0.31000
 31
        0.00000
 12
        2.90000
 22
        0.31000
 32
        0.00000
 13
        2.90000
 23
        0.31000
 33
        2.50000
999
Building Shading:Mir-POLYGON 1 OF BUILDING 1 - SHADING PLANE 3
  0
3DFACE
  8
Building Shading
 62
195
 10
        2.90000
 20
        0.31000
 30
        2.50000
 11
        2.90000
 21
        0.31000
 31
        0.00000
 12
        1.52000
 22
        0.31000
 32
        0.00000
 13
        1.52000
 23
        0.31000
 33
        2.50000
999
Building Shading:POLYGON 1 OF BUILDING 1 - SHADING PLANE 4
  0
3DFACE
  8
Building Shading
 62
195
 10
       -8.41000
 20
       -4.01000
 30
        2.50000
 11
       -8.41000
 21
       -4.01000
 31
        0.00000
 12
       -8.41000
 22
       -2.75000
 32
        0.00000
 13
       -8.41000
 23
       -2.75000
 33
        2.50000
999
Building Shading:Mir-POLYGON 1 OF BUILDING 1 - SHADING PLANE 4
  0
3DFACE
  8
Building Shading
 62
195
 10
       -8.41000
 20
       -2.75000
 30
        2.50000
 11
       -8.41000
 21
       -2.75000
 31
        0.00000
 12
       -8.41000
 22
       -4.01000
 32
        0.00000
 13
       -8.41000
 23
       -4.01000
 33
        2.50000
999
Building Shading:POLYGON 1 OF BUILDING 1 - SHADING PLANE 5
  0
3DFACE
  8
Building Shading
 62
195
 10
       -7.07000
 20
       -4.01000
 30
        0.00000
 11
       -8.41000
 21
       -4.01000
 31
        0.00000
 12
       -8.41000
 22
       -4.01000
 32
        2.50000
 13
       -7.07000
 23
       -4.01000
 33
        2.50000
999
Building Shading:Mir-POLYGON 1 OF BUILDING 1 - SHADING PLANE 5
  0
3DFACE
  8
Building Shading
 62
195
 10
       -7.07000
 20
       -4.01000
 30
        2.50000
 11
       -8.41000
 21
       -4.01000
 31
        2.50000
 12
       -8.41000
 22
       -4.01000
 32
        0.00000
 13
       -7.07000
 23
       -4.01000
 33
        0.00000
999
Building Shading:POLYGON 1 OF BUILDING 1 - SHADING PLANE 6
  0
3DFACE
  8
Building Shading
 62
195
 10
        8.41000
 20
       -4.01000
 30
        0.00000
 11
        7.07000
 21
       -4.01000
 31
        0.00000
 12
        7.07000
 22
       -4.01000
 32
        2.50000
 13
        8.41000
 23
       -4.01000
 33
        2.50000
999
Building Shading:Mir-POLYGON 1 OF BUILDING 1 - SHADING PLANE 6
  0
3DFACE
  8
Building Shading
 62
195
 10
        8.41000
 20
       -4.01000
 30
        2.50000
 11
        7.07000
 21
       -4.01000
 31
        2.50000
 12
        7.07000
 22
       -4.01000
 32
        0.00000
 13
        8.41000
 23
       -4.01000
 33
        0.00000
999
Building Shading:POLYGON 1 OF BUILDING 1 - SHADING PLANE 7
  0
3DFACE
  8
Building Shading
 62
195
 10
       -7.07000
 20
       -2.75000
 30
        2.02000
 11
       -7.07000
 21
       -2.75000
 31
        0.00000
 12
       -7.07000
 22
       -2.91000
 32
        0.00000
 13
       -7.07000
 23
       -2.91000
 33
        2.02000
999
Building Shading:Mir-POLYGON 1 OF BUILDING 1 - SHADING PLANE 7
  0
3DFACE
  8
Building Shading
 62
195
 10
       -7.07000
 20
       -2.91000
 30
        2.02000
 11
       -7.07000
 21
       -2.91000
 31
        0.00000
 12
       -7.07000
 22
       -2.75000
 32
        0.00000
 13
       -7.07000
 23
       -2.75000
 33
        2.02000
999
Building Shading:POLYGON 2 OF BUILDING 1 - SHADING PLANE 7
  0
3DFACE
  8
Building Shading
 62
195
 10
       -7.07000
 20
       -2.75000
 30
        2.50000
 11
       -7.07000
 21
       -2.75000
 31
        2.02000
 12
       -7.07000
 22
       -3.85000
 32
        2.02000
 13
       -7.07000
 23
       -3.85000
 33
        2.50000
999
Building Shading:Mir-POLYGON 2 OF BUILDING 1 - SHADING PLANE 7
  0
3DFACE
  8
Building Shading
 62
195
 10
       -7.07000
 20
       -3.85000
 30
        2.50000
 11
       -7.07000
 21
       -3.85000
 31
        2.02000
 12
       -7.07000
 22
       -2.75000
 32
        2.02000
 13
       -7.07000
 23
       -2.75000
 33
        2.50000
999
Building Shading:POLYGON 3 OF BUILDING 1 - SHADING PLANE 7
  0
3DFACE
  8
Building Shading
 62
195
 10
       -7.07000
 20
       -4.01000
 30
        2.50000
 11
       -7.07000
 21
       -3.85000
 31
        2.50000
 12
       -7.07000
 22
       -3.85000
 32
        0.00000
 13
       -7.07000
 23
       -4.01000
 33
        0.00000
999
Building Shading:Mir-POLYGON 3 OF BUILDING 1 - SHADING PLANE 7
  0
3DFACE
  8
Building Shading
 62
195
 10
       -7.07000
 20
       -4.01000
 30
        0.00000
 11
       -7.07000
 21
       -3.85000
 31
        0.00000
 12
       -7.07000
 22
       -3.85000
 32
        2.50000
 13
       -7.07000
 23
       -4.01000
 33
        2.50000
999
Building Shading:POLYGON 1 OF BUILDING 1 - SHADING PLANE 8
  0
3DFACE
  8
Building Shading
 62
195
 10
       -1.32000
 20
        0.35000
 30
        2.70000
 11
       -0.00000
 21
        0.35000
 31
        2.70000
 12
       -0.00000
 22
        1.95000
 32
        2.70000
 13
       -1.32000
 23
        1.95000
 33
        2.70000
999
Building Shading:Mir-POLYGON 1 OF BUILDING 1 - SHADING PLANE 8
  0
3DFACE
  8
Building Shading
 62
195
 10
       -1.32000
 20
        1.95000
 30
        2.70000
 11
       -0.00000
 21
        1.95000
 31
        2.70000
 12
       -0.00000
 22
        0.35000
 32
        2.70000
 13
       -1.32000
 23
        0.35000
 33
        2.70000
999
Building Shading:POLYGON 2 OF BUILDING 1 - SHADING PLANE 8
  0
3DFACE
  8
Building Shading
 62
195
 10
       -1.32000
 20
       -4.25000
 30
        2.70000
 11
       -0.00000
 21
       -4.25000
 31
        2.70000
 12
       -0.00000
 22
       -2.75000
 32
        2.70000
 13
       -1.32000
 23
       -2.75000
 33
        2.70000
999
Building Shading:Mir-POLYGON 2 OF BUILDING 1 - SHADING PLANE 8
  0
3DFACE
  8
Building Shading
 62
195
 10
       -1.32000
 20
       -2.75000
 30
        2.70000
 11
       -0.00000
 21
       -2.75000
 31
        2.70000
 12
       -0.00000
 22
       -4.25000
 32
        2.70000
 13
       -1.32000
 23
       -4.25000
 33
        2.70000
999
Building Shading:POLYGON 3 OF BUILDING 1 - SHADING PLANE 8
  0
3DFACE
  8
Building Shading
 62
195
 10
       -8.37000
 20
       -4.25000
 30
        2.70000
 11
       -1.42000
 21
       -4.25000
 31
        2.70000
 12
       -1.42000
 22
       -2.75000
 32
        2.70000
 13
       -8.37000
 23
       -2.75000
 33
        2.70000
999
Building Shading:Mir-POLYGON 3 OF BUILDING 1 - SHADING PLANE 8
  0
3DFACE
  8
Building Shading
 62
195
 10
       -8.37000
 20
       -2.75000
 30
        2.70000
 11
       -1.42000
 21
       -2.75000
 31
        2.70000
 12
       -1.42000
 22
       -4.25000
 32
        2.70000
 13
       -8.37000
 23
       -4.25000
 33
        2.70000
999
Building Shading:POLYGON 4 OF BUILDING 1 - SHADING PLANE 8
  0
3DFACE
  8
Building Shading
 62
195
 10
       -8.47000
 20
       -4.25000
 30
        2.70000
 11
       -8.37000
 21
       -4.25000
 31
        2.70000
 12
       -8.37000
 22
        4.15000
 32
        2.70000
 13
       -8.47000
 23
        4.15000
 33
        2.70000
999
Building Shading:Mir-POLYGON 4 OF BUILDING 1 - SHADING PLANE 8
  0
3DFACE
  8
Building Shading
 62
195
 10
       -8.47000
 20
        4.15000
 30
        2.70000
 11
       -8.37000
 21
        4.15000
 31
        2.70000
 12
       -8.37000
 22
       -4.25000
 32
        2.70000
 13
       -8.47000
 23
       -4.25000
 33
        2.70000
999
Building Shading:POLYGON 5 OF BUILDING 1 - SHADING PLANE 8
  0
3DFACE
  8
Building Shading
 62
195
 10
       -8.47000
 20
        4.25000
 30
        2.70000
 11
       -8.47000
 21
        4.15000
 31
        2.70000
 12
       -1.42000
 22
        4.15000
 32
        2.70000
 13
       -1.42000
 23
        4.25000
 33
        2.70000
999
Building Shading:Mir-POLYGON 5 OF BUILDING 1 - SHADING PLANE 8
  0
3DFACE
  8
Building Shading
 62
195
 10
       -1.42000
 20
        4.25000
 30
        2.70000
 11
       -1.42000
 21
        4.15000
 31
        2.70000
 12
       -8.47000
 22
        4.15000
 32
        2.70000
 13
       -8.47000
 23
        4.25000
 33
        2.70000
999
Building Shading:POLYGON 6 OF BUILDING 1 - SHADING PLANE 8
  0
3DFACE
  8
Building Shading
 62
195
 10
       -1.32000
 20
       -2.75000
 30
        2.70000
 11
       -1.42000
 21
       -2.75000
 31
        2.70000
 12
       -1.42000
 22
       -4.25000
 32
        2.70000
 13
       -1.32000
 23
       -4.25000
 33
        2.70000
999
Building Shading:Mir-POLYGON 6 OF BUILDING 1 - SHADING PLANE 8
  0
3DFACE
  8
Building Shading
 62
195
 10
       -1.32000
 20
       -4.25000
 30
        2.70000
 11
       -1.42000
 21
       -4.25000
 31
        2.70000
 12
       -1.42000
 22
       -2.75000
 32
        2.70000
 13
       -1.32000
 23
       -2.75000
 33
        2.70000
999
Building Shading:POLYGON 7 OF BUILDING 1 - SHADING PLANE 8
  0
3DFACE
  8
Building Shading
 62
195
 10
       -1.32000
 20
        4.25000
 30
        2.70000
 11
       -1.42000
 21
        4.25000
 31
        2.70000
 12
       -1.42000
 22
        0.35000
 32
        2.70000
 13
       -1.32000
 23
        0.35000
 33
        2.70000
999
Building Shading:Mir-POLYGON 7 OF BUILDING 1 - SHADING PLANE 8
  0
3DFACE
  8
Building Shading
 62
195
 10
       -1.32000
 20
        0.35000
 30
        2.70000
 11
       -1.42000
 21
        0.35000
 31
        2.70000
 12
       -1.42000
 22
        4.25000
 32
        2.70000
 13
       -1.32000
 23
        4.25000
 33
        2.70000
999
Building Shading:POLYGON 1 OF BUILDING 1 - SHADING PLANE 9
  0
3DFACE
  8
Building Shading
 62
195
 10
        8.47000
 20
       -2.75000
 30
        2.70000
 11
        8.47000
 21
        0.35000
 31
        2.70000
 12
        8.37000
 22
        0.35000
 32
        2.70000
 13
        8.37000
 23
       -2.75000
 33
        2.70000
999
Building Shading:Mir-POLYGON 1 OF BUILDING 1 - SHADING PLANE 9
  0
3DFACE
  8
Building Shading
 62
195
 10
        8.37000
 20
       -2.75000
 30
        2.70000
 11
        8.37000
 21
        0.35000
 31
        2.70000
 12
        8.47000
 22
        0.35000
 32
        2.70000
 13
        8.47000
 23
       -2.75000
 33
        2.70000
999
Building Shading:POLYGON 2 OF BUILDING 1 - SHADING PLANE 9
  0
3DFACE
  8
Building Shading
 62
195
 10
        8.47000
 20
       -4.25000
 30
        2.70000
 11
        8.47000
 21
       -2.75000
 31
        2.70000
 12
        0.05000
 22
       -2.75000
 32
        2.70000
 13
        0.05000
 23
       -4.25000
 33
        2.70000
999
Building Shading:Mir-POLYGON 2 OF BUILDING 1 - SHADING PLANE 9
  0
3DFACE
  8
Building Shading
 62
195
 10
        0.05000
 20
       -4.25000
 30
        2.70000
 11
        0.05000
 21
       -2.75000
 31
        2.70000
 12
        8.47000
 22
       -2.75000
 32
        2.70000
 13
        8.47000
 23
       -4.25000
 33
        2.70000
999
Building Shading:POLYGON 3 OF BUILDING 1 - SHADING PLANE 9
  0
3DFACE
  8
Building Shading
 62
195
 10
        0.00000
 20
       -4.25000
 30
        2.70000
 11
        0.05000
 21
       -4.25000
 31
        2.70000
 12
        0.05000
 22
        0.35000
 32
        2.70000
 13
        0.00000
 23
        0.35000
 33
        2.70000
999
Building Shading:Mir-POLYGON 3 OF BUILDING 1 - SHADING PLANE 9
  0
3DFACE
  8
Building Shading
 62
195
 10
        0.00000
 20
        0.35000
 30
        2.70000
 11
        0.05000
 21
        0.35000
 31
        2.70000
 12
        0.05000
 22
       -4.25000
 32
        2.70000
 13
        0.00000
 23
       -4.25000
 33
        2.70000
999
Building Shading:POLYGON 4 OF BUILDING 1 - SHADING PLANE 9
  0
3DFACE
  8
Building Shading
 62
195
 10
        8.37000
 20
        0.70010
 30
        2.70000
 11
        8.37000
 21
        0.35000
 31
        2.70000
 12
        8.47000
 22
        0.35000
 32
        2.70000
 13
        8.47000
 23
        0.70010
 33
        2.70000
999
Building Shading:Mir-POLYGON 4 OF BUILDING 1 - SHADING PLANE 9
  0
3DFACE
  8
Building Shading
 62
195
 10
        8.47000
 20
        0.70010
 30
        2.70000
 11
        8.47000
 21
        0.35000
 31
        2.70000
 12
        8.37000
 22
        0.35000
 32
        2.70000
 13
        8.37000
 23
        0.70010
 33
        2.70000
999
Building Shading:POLYGON 5 OF BUILDING 1 - SHADING PLANE 9
  0
3DFACE
  8
Building Shading
 62
195
 10
        0.00000
 20
        0.70010
 30
        2.70000
 11
        0.00000
 21
        0.35000
 31
        2.70000
 12
        1.42000
 22
        0.35000
 32
        2.70000
 13
        1.42000
 23
        0.70010
 33
        2.70000
999
Building Shading:Mir-POLYGON 5 OF BUILDING 1 - SHADING PLANE 9
  0
3DFACE
  8
Building Shading
 62
195
 10
        1.42000
 20
        0.70010
 30
        2.70000
 11
        1.42000
 21
        0.35000
 31
        2.70000
 12
        0.00000
 22
        0.35000
 32
        2.70000
 13
        0.00000
 23
        0.70010
 33
        2.70000
999
Building Shading:POLYGON 6 OF BUILDING 1 - SHADING PLANE 9
  0
3DFACE
  8
Building Shading
 62
195
 10
        1.42000
 20
        1.95000
 30
        2.70000
 11
        1.42000
 21
        4.15000
 31
        2.70000
 12
        1.32000
 22
        4.15000
 32
        2.70000
 13
        1.32000
 23
        1.95000
 33
        2.70000
999
Building Shading:Mir-POLYGON 6 OF BUILDING 1 - SHADING PLANE 9
  0
3DFACE
  8
Building Shading
 62
195
 10
        1.32000
 20
        1.95000
 30
        2.70000
 11
        1.32000
 21
        4.15000
 31
        2.70000
 12
        1.42000
 22
        4.15000
 32
        2.70000
 13
        1.42000
 23
        1.95000
 33
        2.70000
999
Building Shading:POLYGON 7 OF BUILDING 1 - SHADING PLANE 9
  0
3DFACE
  8
Building Shading
 62
195
 10
        1.42000
 20
        0.70010
 30
        2.70000
 11
        1.42000
 21
        1.95000
 31
        2.70000
 12
        0.00000
 22
        1.95000
 32
        2.70000
 13
        0.00000
 23
        0.70010
 33
        2.70000
999
Building Shading:Mir-POLYGON 7 OF BUILDING 1 - SHADING PLANE 9
  0
3DFACE
  8
Building Shading
 62
195
 10
        0.00000
 20
        0.70010
 30
        2.70000
 11
        0.00000
 21
        1.95000
 31
        2.70000
 12
        1.42000
 22
        1.95000
 32
        2.70000
 13
        1.42000
 23
        0.70010
 33
        2.70000
999
Building Shading:POLYGON 8 OF BUILDING 1 - SHADING PLANE 9
  0
3DFACE
  8
Building Shading
 62
195
 10
        1.32000
 20
        4.25000
 30
        2.70000
 11
        1.32000
 21
        4.15000
 31
        2.70000
 12
        8.37000
 22
        4.15000
 32
        2.70000
 13
        8.37000
 23
        4.25000
 33
        2.70000
999
Building Shading:Mir-POLYGON 8 OF BUILDING 1 - SHADING PLANE 9
  0
3DFACE
  8
Building Shading
 62
195
 10
        8.37000
 20
        4.25000
 30
        2.70000
 11
        8.37000
 21
        4.15000
 31
        2.70000
 12
        1.32000
 22
        4.15000
 32
        2.70000
 13
        1.32000
 23
        4.25000
 33
        2.70000
999
Building Shading:POLYGON 9 OF BUILDING 1 - SHADING PLANE 9
  0
3DFACE
  8
Building Shading
 62
195
 10
        8.47000
 20
        4.25000
 30
        2.70000
 11
        8.37000
 21
        4.25000
 31
        2.70000
 12
        8.37000
 22
        0.70010
 32
        2.70000
 13
        8.47000
 23
        0.70010
 33
        2.70000
999
Building Shading:Mir-POLYGON 9 OF BUILDING 1 - SHADING PLANE 9
  0
3DFACE
  8
Building Shading
 62
195
 10
        8.47000
 20
        0.70010
 30
        2.70000
 11
        8.37000
 21
        0.70010
 31
        2.70000
 12
        8.37000
 22
        4.25000
 32
        2.70000
 13
        8.47000
 23
        4.25000
 33
        2.70000
999
Building Shading:POLYGON 1 OF BUILDING 1 - SHADING PLANE 10
  0
3DFACE
  8
Building Shading
 62
195
 10
        0.05000
 20
        0.35000
 30
        0.00000
 11
       -0.05000
 21
        0.35000
 31
        0.00000
 12
       -0.05000
 22
        0.35000
 32
        2.50000
 13
        0.05000
 23
        0.35000
 33
        2.50000
999
Building Shading:Mir-POLYGON 1 OF BUILDING 1 - SHADING PLANE 10
  0
3DFACE
  8
Building Shading
 62
195
 10
        0.05000
 20
        0.35000
 30
        2.50000
 11
       -0.05000
 21
        0.35000
 31
        2.50000
 12
       -0.05000
 22
        0.35000
 32
        0.00000
 13
        0.05000
 23
        0.35000
 33
        0.00000
999
Building Shading:POLYGON 1 OF BUILDING 1 - SHADING PLANE 11
  0
3DFACE
  8
Building Shading
 62
195
 10
       -0.05000
 20
       -2.75000
 30
        2.50000
 11
       -0.05000
 21
       -2.75000
 31
        0.00000
 12
        0.05000
 22
       -2.75000
 32
        0.00000
 13
        0.05000
 23
       -2.75000
 33
        2.50000
999
Building Shading:Mir-POLYGON 1 OF BUILDING 1 - SHADING PLANE 11
  0
3DFACE
  8
Building Shading
 62
195
 10
        0.05000
 20
       -2.75000
 30
        2.50000
 11
        0.05000
 21
       -2.75000
 31
        0.00000
 12
       -0.05000
 22
       -2.75000
 32
        0.00000
 13
       -0.05000
 23
       -2.75000
 33
        2.50000
999
Building Shading:POLYGON 1 OF BUILDING 1 - SHADING PLANE 12
  0
3DFACE
  8
Building Shading
 62
195
 10
        2.90000
 20
        1.57000
 30
        2.50000
 11
        2.90000
 21
        1.57000
 31
        0.00000
 12
        2.90000
 22
        1.63000
 32
        0.00000
 13
        2.90000
 23
        1.63000
 33
        2.50000
999
Building Shading:Mir-POLYGON 1 OF BUILDING 1 - SHADING PLANE 12
  0
3DFACE
  8
Building Shading
 62
195
 10
        2.90000
 20
        1.63000
 30
        2.50000
 11
        2.90000
 21
        1.63000
 31
        0.00000
 12
        2.90000
 22
        1.57000
 32
        0.00000
 13
        2.90000
 23
        1.57000
 33
        2.50000
999
Building Shading:POLYGON 1 OF BUILDING 1 - SHADING PLANE 13
  0
3DFACE
  8
Building Shading
 62
195
 10
        8.41000
 20
       -2.75000
 30
        0.00000
 11
        8.41000
 21
       -4.01000
 31
        0.00000
 12
        8.41000
 22
       -4.01000
 32
        2.50000
 13
        8.41000
 23
       -2.75000
 33
        2.50000
999
Building Shading:Mir-POLYGON 1 OF BUILDING 1 - SHADING PLANE 13
  0
3DFACE
  8
Building Shading
 62
195
 10
        8.41000
 20
       -2.75000
 30
        2.50000
 11
        8.41000
 21
       -4.01000
 31
        2.50000
 12
        8.41000
 22
       -4.01000
 32
        0.00000
 13
        8.41000
 23
       -2.75000
 33
        0.00000
999
Building Shading:POLYGON 1 OF BUILDING 1 - SHADING PLANE 14
  0
3DFACE
  8
Building Shading
 62
195
 10
        7.07000
 20
       -4.01000
 30
        2.02000
 11
        7.07000
 21
       -4.01000
 31
        0.00000
 12
        7.07000
 22
       -3.85000
 32
        0.00000
 13
        7.07000
 23
       -3.85000
 33
        2.02000
999
Building Shading:Mir-POLYGON 1 OF BUILDING 1 - SHADING PLANE 14
  0
3DFACE
  8
Building Shading
 62
195
 10
        7.07000
 20
       -3.85000
 30
        2.02000
 11
        7.07000
 21
       -3.85000
 31
        0.00000
 12
        7.07000
 22
       -4.01000
 32
        0.00000
 13
        7.07000
 23
       -4.01000
 33
        2.02000
999
Building Shading:POLYGON 2 OF BUILDING 1 - SHADING PLANE 14
  0
3DFACE
  8
Building Shading
 62
195
 10
        7.07000
 20
       -4.01000
 30
        2.50000
 11
        7.07000
 21
       -4.01000
 31
        2.02000
 12
        7.07000
 22
       -2.91000
 32
        2.02000
 13
        7.07000
 23
       -2.91000
 33
        2.50000
999
Building Shading:Mir-POLYGON 2 OF BUILDING 1 - SHADING PLANE 14
  0
3DFACE
  8
Building Shading
 62
195
 10
        7.07000
 20
       -2.91000
 30
        2.50000
 11
        7.07000
 21
       -2.91000
 31
        2.02000
 12
        7.07000
 22
       -4.01000
 32
        2.02000
 13
        7.07000
 23
       -4.01000
 33
        2.50000
999
Building Shading:POLYGON 3 OF BUILDING 1 - SHADING PLANE 14
  0
3DFACE
  8
Building Shading
 62
195
 10
        7.07000
 20
       -2.75000
 30
        2.50000
 11
        7.07000
 21
       -2.91000
 31
        2.50000
 12
        7.07000
 22
       -2.91000
 32
        0.00000
 13
        7.07000
 23
       -2.75000
 33
        0.00000
999
Building Shading:Mir-POLYGON 3 OF BUILDING 1 - SHADING PLANE 14
  0
3DFACE
  8
Building Shading
 62
195
 10
        7.07000
 20
       -2.75000
 30
        0.00000
 11
        7.07000
 21
       -2.91000
 31
        0.00000
 12
        7.07000
 22
       -2.91000
 32
        2.50000
 13
        7.07000
 23
       -2.75000
 33
        2.50000
999
Building Shading:BUILDING 1 - COMPONENT BLOCK 1 - SURFACE 1 (51)
  0
3DFACE
  8
Building Shading
 62
195
 10
       -1.42000
 20
        4.15000
 30
        2.70000
 11
       -1.42000
 21
        0.35000
 31
        2.70000
 12
       -8.37000
 22
        0.35000
 32
        2.70000
 13
       -8.37000
 23
        4.15000
 33
        2.70000
999
Building Shading:Mir-BUILDING 1 - COMPONENT BLOCK 1 - SURFACE 1 (51)
  0
3DFACE
  8
Building Shading
 62
195
 10
       -8.37000
 20
        4.15000
 30
        2.70000
 11
       -8.37000
 21
        0.35000
 31
        2.70000
 12
       -1.42000
 22
        0.35000
 32
        2.70000
 13
       -1.42000
 23
        4.15000
 33
        2.70000
999
Building Shading:BUILDING 1 - COMPONENT BLOCK 1 - SURFACE 2 (52)
  0
3DFACE
  8
Building Shading
 62
195
 10
        1.42000
 20
        0.35000
 30
        2.70000
 11
        1.42000
 21
       -2.75000
 31
        2.70000
 12
       -8.37000
 22
       -2.75000
 32
        2.70000
 13
       -8.37000
 23
        0.35000
 33
        2.70000
999
Building Shading:Mir-BUILDING 1 - COMPONENT BLOCK 1 - SURFACE 2 (52)
  0
3DFACE
  8
Building Shading
 62
195
 10
       -8.37000
 20
        0.35000
 30
        2.70000
 11
       -8.37000
 21
       -2.75000
 31
        2.70000
 12
        1.42000
 22
       -2.75000
 32
        2.70000
 13
        1.42000
 23
        0.35000
 33
        2.70000
999
Building Shading:BUILDING 1 - COMPONENT BLOCK 1 - SURFACE 3 (53)
  0
3DFACE
  8
Building Shading
 62
195
 10
        8.37000
 20
        4.15000
 30
        2.70000
 11
        8.37000
 21
       -2.75000
 31
        2.70000
 12
        1.42000
 22
       -2.75000
 32
        2.70000
 13
        1.42000
 23
        4.15000
 33
        2.70000
999
Building Shading:Mir-BUILDING 1 - COMPONENT BLOCK 1 - SURFACE 3 (53)
  0
3DFACE
  8
Building Shading
 62
195
 10
        1.42000
 20
        4.15000
 30
        2.70000
 11
        1.42000
 21
       -2.75000
 31
        2.70000
 12
        8.37000
 22
       -2.75000
 32
        2.70000
 13
        8.37000
 23
        4.15000
 33
        2.70000
999
Building Shading:BUILDING 1 - COMPONENT BLOCK 1 - SURFACE 4 (54)
  0
3DFACE
  8
Building Shading
 62
195
 10
        1.42000
 20
        4.15000
 30
        6.20000
 11
        1.42000
 21
        0.35000
 31
        6.20000
 12
        8.37000
 22
        0.35000
 32
        6.20000
 13
        8.37000
 23
        4.15000
 33
        6.20000
999
Building Shading:Mir-BUILDING 1 - COMPONENT BLOCK 1 - SURFACE 4 (54)
  0
3DFACE
  8
Building Shading
 62
195
 10
        8.37000
 20
        4.15000
 30
        6.20000
 11
        8.37000
 21
        0.35000
 31
        6.20000
 12
        1.42000
 22
        0.35000
 32
        6.20000
 13
        1.42000
 23
        4.15000
 33
        6.20000
999
Building Shading:BUILDING 1 - COMPONENT BLOCK 1 - SURFACE 5 (55)
  0
3DFACE
  8
Building Shading
 62
195
 10
       -1.42000
 20
        0.35000
 30
        6.20000
 11
       -1.42000
 21
       -2.75000
 31
        6.20000
 12
        8.37000
 22
       -2.75000
 32
        6.20000
 13
        8.37000
 23
        0.35000
 33
        6.20000
999
Building Shading:Mir-BUILDING 1 - COMPONENT BLOCK 1 - SURFACE 5 (55)
  0
3DFACE
  8
Building Shading
 62
195
 10
        8.37000
 20
        0.35000
 30
        6.20000
 11
        8.37000
 21
       -2.75000
 31
        6.20000
 12
       -1.42000
 22
       -2.75000
 32
        6.20000
 13
       -1.42000
 23
        0.35000
 33
        6.20000
999
Building Shading:BUILDING 1 - COMPONENT BLOCK 1 - SURFACE 6 (56)
  0
3DFACE
  8
Building Shading
 62
195
 10
       -8.37000
 20
        4.15000
 30
        6.20000
 11
       -8.37000
 21
       -2.75000
 31
        6.20000
 12
       -1.42000
 22
       -2.75000
 32
        6.20000
 13
       -1.42000
 23
        4.15000
 33
        6.20000
999
Building Shading:Mir-BUILDING 1 - COMPONENT BLOCK 1 - SURFACE 6 (56)
  0
3DFACE
  8
Building Shading
 62
195
 10
       -1.42000
 20
        4.15000
 30
        6.20000
 11
       -1.42000
 21
       -2.75000
 31
        6.20000
 12
       -8.37000
 22
       -2.75000
 32
        6.20000
 13
       -8.37000
 23
        4.15000
 33
        6.20000
999
Building Shading:BUILDING 1 - COMPONENT BLOCK 1 - SURFACE 7 (57)
  0
3DFACE
  8
Building Shading
 62
195
 10
       -1.42000
 20
        4.15000
 30
        6.20000
 11
       -1.42000
 21
        4.15000
 31
        2.70000
 12
       -8.37000
 22
        4.15000
 32
        2.70000
 13
       -8.37000
 23
        4.15000
 33
        6.20000
999
Building Shading:Mir-BUILDING 1 - COMPONENT BLOCK 1 - SURFACE 7 (57)
  0
3DFACE
  8
Building Shading
 62
195
 10
       -8.37000
 20
        4.15000
 30
        6.20000
 11
       -8.37000
 21
        4.15000
 31
        2.70000
 12
       -1.42000
 22
        4.15000
 32
        2.70000
 13
       -1.42000
 23
        4.15000
 33
        6.20000
999
Building Shading:BUILDING 1 - COMPONENT BLOCK 1 - SURFACE 8 (58)
  0
3DFACE
  8
Building Shading
 62
195
 10
       -1.42000
 20
        0.35000
 30
        6.20000
 11
       -1.42000
 21
        0.35000
 31
        2.70000
 12
       -1.42000
 22
        4.15000
 32
        2.70000
 13
       -1.42000
 23
        4.15000
 33
        6.20000
999
Building Shading:Mir-BUILDING 1 - COMPONENT BLOCK 1 - SURFACE 8 (58)
  0
3DFACE
  8
Building Shading
 62
195
 10
       -1.42000
 20
        4.15000
 30
        6.20000
 11
       -1.42000
 21
        4.15000
 31
        2.70000
 12
       -1.42000
 22
        0.35000
 32
        2.70000
 13
       -1.42000
 23
        0.35000
 33
        6.20000
999
Building Shading:BUILDING 1 - COMPONENT BLOCK 1 - SURFACE 9 (59)
  0
3DFACE
  8
Building Shading
 62
195
 10
        1.42000
 20
        0.35000
 30
        6.20000
 11
        1.42000
 21
        0.35000
 31
        2.70000
 12
       -1.42000
 22
        0.35000
 32
        2.70000
 13
       -1.42000
 23
        0.35000
 33
        6.20000
999
Building Shading:Mir-BUILDING 1 - COMPONENT BLOCK 1 - SURFACE 9 (59)
  0
3DFACE
  8
Building Shading
 62
195
 10
       -1.42000
 20
        0.35000
 30
        6.20000
 11
       -1.42000
 21
        0.35000
 31
        2.70000
 12
        1.42000
 22
        0.35000
 32
        2.70000
 13
        1.42000
 23
        0.35000
 33
        6.20000
999
Building Shading:BUILDING 1 - COMPONENT BLOCK 1 - SURFACE 10 (60)
  0
3DFACE
  8
Building Shading
 62
195
 10
        1.42000
 20
        4.15000
 30
        6.20000
 11
        1.42000
 21
        4.15000
 31
        2.70000
 12
        1.42000
 22
        0.35000
 32
        2.70000
 13
        1.42000
 23
        0.35000
 33
        6.20000
999
Building Shading:Mir-BUILDING 1 - COMPONENT BLOCK 1 - SURFACE 10 (60)
  0
3DFACE
  8
Building Shading
 62
195
 10
        1.42000
 20
        0.35000
 30
        6.20000
 11
        1.42000
 21
        0.35000
 31
        2.70000
 12
        1.42000
 22
        4.15000
 32
        2.70000
 13
        1.42000
 23
        4.15000
 33
        6.20000
999
Building Shading:BUILDING 1 - COMPONENT BLOCK 1 - SURFACE 11 (61)
  0
3DFACE
  8
Building Shading
 62
195
 10
        8.37000
 20
        4.15000
 30
        6.20000
 11
        8.37000
 21
        4.15000
 31
        2.70000
 12
        1.42000
 22
        4.15000
 32
        2.70000
 13
        1.42000
 23
        4.15000
 33
        6.20000
999
Building Shading:Mir-BUILDING 1 - COMPONENT BLOCK 1 - SURFACE 11 (61)
  0
3DFACE
  8
Building Shading
 62
195
 10
        1.42000
 20
        4.15000
 30
        6.20000
 11
        1.42000
 21
        4.15000
 31
        2.70000
 12
        8.37000
 22
        4.15000
 32
        2.70000
 13
        8.37000
 23
        4.15000
 33
        6.20000
999
Building Shading:BUILDING 1 - COMPONENT BLOCK 1 - SURFACE 12 (62)
  0
3DFACE
  8
Building Shading
 62
195
 10
        8.37000
 20
       -2.75000
 30
        6.20000
 11
        8.37000
 21
       -2.75000
 31
        2.70000
 12
        8.37000
 22
        4.15000
 32
        2.70000
 13
        8.37000
 23
        4.15000
 33
        6.20000
999
Building Shading:Mir-BUILDING 1 - COMPONENT BLOCK 1 - SURFACE 12 (62)
  0
3DFACE
  8
Building Shading
 62
195
 10
        8.37000
 20
        4.15000
 30
        6.20000
 11
        8.37000
 21
        4.15000
 31
        2.70000
 12
        8.37000
 22
       -2.75000
 32
        2.70000
 13
        8.37000
 23
       -2.75000
 33
        6.20000
999
Building Shading:BUILDING 1 - COMPONENT BLOCK 1 - SURFACE 13 (63)
  0
3DFACE
  8
Building Shading
 62
195
 10
       -8.37000
 20
       -2.75000
 30
        6.20000
 11
       -8.37000
 21
       -2.75000
 31
        2.70000
 12
        8.37000
 22
       -2.75000
 32
        2.70000
 13
        8.37000
 23
       -2.75000
 33
        6.20000
999
Building Shading:Mir-BUILDING 1 - COMPONENT BLOCK 1 - SURFACE 13 (63)
  0
3DFACE
  8
Building Shading
 62
195
 10
        8.37000
 20
       -2.75000
 30
        6.20000
 11
        8.37000
 21
       -2.75000
 31
        2.70000
 12
       -8.37000
 22
       -2.75000
 32
        2.70000
 13
       -8.37000
 23
       -2.75000
 33
        6.20000
999
Building Shading:BUILDING 1 - COMPONENT BLOCK 1 - SURFACE 14 (64)
  0
3DFACE
  8
Building Shading
 62
195
 10
       -8.37000
 20
        4.15000
 30
        6.20000
 11
       -8.37000
 21
        4.15000
 31
        2.70000
 12
       -8.37000
 22
       -2.75000
 32
        2.70000
 13
       -8.37000
 23
       -2.75000
 33
        6.20000
999
Building Shading:Mir-BUILDING 1 - COMPONENT BLOCK 1 - SURFACE 14 (64)
  0
3DFACE
  8
Building Shading
 62
195
 10
       -8.37000
 20
       -2.75000
 30
        6.20000
 11
       -8.37000
 21
       -2.75000
 31
        2.70000
 12
       -8.37000
 22
        4.15000
 32
        2.70000
 13
       -8.37000
 23
        4.15000
 33
        6.20000
999
Building Shading:BUILDING 1 - COMPONENT BLOCK 2 - SURFACE 1 (65)
  0
3DFACE
  8
Building Shading
 62
195
 10
        1.42000
 20
        4.15000
 30
        0.00000
 11
        1.42000
 21
        0.35000
 31
        0.00000
 12
        8.37000
 22
        0.35000
 32
        0.00000
 13
        8.37000
 23
        4.15000
 33
        0.00000
999
Building Shading:Mir-BUILDING 1 - COMPONENT BLOCK 2 - SURFACE 1 (65)
  0
3DFACE
  8
Building Shading
 62
195
 10
        8.37000
 20
        4.15000
 30
        0.00000
 11
        8.37000
 21
        0.35000
 31
        0.00000
 12
        1.42000
 22
        0.35000
 32
        0.00000
 13
        1.42000
 23
        4.15000
 33
        0.00000
999
Building Shading:BUILDING 1 - COMPONENT BLOCK 2 - SURFACE 2 (66)
  0
3DFACE
  8
Building Shading
 62
195
 10
       -1.42000
 20
        0.35000
 30
        0.00000
 11
       -1.42000
 21
       -2.75000
 31
        0.00000
 12
        8.37000
 22
       -2.75000
 32
        0.00000
 13
        8.37000
 23
        0.35000
 33
        0.00000
999
Building Shading:Mir-BUILDING 1 - COMPONENT BLOCK 2 - SURFACE 2 (66)
  0
3DFACE
  8
Building Shading
 62
195
 10
        8.37000
 20
        0.35000
 30
        0.00000
 11
        8.37000
 21
       -2.75000
 31
        0.00000
 12
       -1.42000
 22
       -2.75000
 32
        0.00000
 13
       -1.42000
 23
        0.35000
 33
        0.00000
999
Building Shading:BUILDING 1 - COMPONENT BLOCK 2 - SURFACE 3 (67)
  0
3DFACE
  8
Building Shading
 62
195
 10
       -8.37000
 20
        4.15000
 30
        0.00000
 11
       -8.37000
 21
       -2.75000
 31
        0.00000
 12
       -1.42000
 22
       -2.75000
 32
        0.00000
 13
       -1.42000
 23
        4.15000
 33
        0.00000
999
Building Shading:Mir-BUILDING 1 - COMPONENT BLOCK 2 - SURFACE 3 (67)
  0
3DFACE
  8
Building Shading
 62
195
 10
       -1.42000
 20
        4.15000
 30
        0.00000
 11
       -1.42000
 21
       -2.75000
 31
        0.00000
 12
       -8.37000
 22
       -2.75000
 32
        0.00000
 13
       -8.37000
 23
        4.15000
 33
        0.00000
999
Building Shading:BUILDING 1 - COMPONENT BLOCK 2 - SURFACE 4 (68)
  0
3DFACE
  8
Building Shading
 62
195
 10
       -1.42000
 20
        4.15000
 30
       -3.50000
 11
       -1.42000
 21
        0.35000
 31
       -3.50000
 12
       -8.37000
 22
        0.35000
 32
       -3.50000
 13
       -8.37000
 23
        4.15000
 33
       -3.50000
999
Building Shading:Mir-BUILDING 1 - COMPONENT BLOCK 2 - SURFACE 4 (68)
  0
3DFACE
  8
Building Shading
 62
195
 10
       -8.37000
 20
        4.15000
 30
       -3.50000
 11
       -8.37000
 21
        0.35000
 31
       -3.50000
 12
       -1.42000
 22
        0.35000
 32
       -3.50000
 13
       -1.42000
 23
        4.15000
 33
       -3.50000
999
Building Shading:BUILDING 1 - COMPONENT BLOCK 2 - SURFACE 5 (69)
  0
3DFACE
  8
Building Shading
 62
195
 10
        1.42000
 20
        0.35000
 30
       -3.50000
 11
        1.42000
 21
       -2.75000
 31
       -3.50000
 12
       -8.37000
 22
       -2.75000
 32
       -3.50000
 13
       -8.37000
 23
        0.35000
 33
       -3.50000
999
Building Shading:Mir-BUILDING 1 - COMPONENT BLOCK 2 - SURFACE 5 (69)
  0
3DFACE
  8
Building Shading
 62
195
 10
       -8.37000
 20
        0.35000
 30
       -3.50000
 11
       -8.37000
 21
       -2.75000
 31
       -3.50000
 12
        1.42000
 22
       -2.75000
 32
       -3.50000
 13
        1.42000
 23
        0.35000
 33
       -3.50000
999
Building Shading:BUILDING 1 - COMPONENT BLOCK 2 - SURFACE 6 (70)
  0
3DFACE
  8
Building Shading
 62
195
 10
        8.37000
 20
        4.15000
 30
       -3.50000
 11
        8.37000
 21
       -2.75000
 31
       -3.50000
 12
        1.42000
 22
       -2.75000
 32
       -3.50000
 13
        1.42000
 23
        4.15000
 33
       -3.50000
999
Building Shading:Mir-BUILDING 1 - COMPONENT BLOCK 2 - SURFACE 6 (70)
  0
3DFACE
  8
Building Shading
 62
195
 10
        1.42000
 20
        4.15000
 30
       -3.50000
 11
        1.42000
 21
       -2.75000
 31
       -3.50000
 12
        8.37000
 22
       -2.75000
 32
       -3.50000
 13
        8.37000
 23
        4.15000
 33
       -3.50000
999
Building Shading:BUILDING 1 - COMPONENT BLOCK 2 - SURFACE 7 (71)
  0
3DFACE
  8
Building Shading
 62
195
 10
       -1.42000
 20
        4.15000
 30
        0.00000
 11
       -1.42000
 21
        4.15000
 31
       -3.50000
 12
       -8.37000
 22
        4.15000
 32
       -3.50000
 13
       -8.37000
 23
        4.15000
 33
        0.00000
999
Building Shading:Mir-BUILDING 1 - COMPONENT BLOCK 2 - SURFACE 7 (71)
  0
3DFACE
  8
Building Shading
 62
195
 10
       -8.37000
 20
        4.15000
 30
        0.00000
 11
       -8.37000
 21
        4.15000
 31
       -3.50000
 12
       -1.42000
 22
        4.15000
 32
       -3.50000
 13
       -1.42000
 23
        4.15000
 33
        0.00000
999
Building Shading:BUILDING 1 - COMPONENT BLOCK 2 - SURFACE 8 (72)
  0
3DFACE
  8
Building Shading
 62
195
 10
       -1.42000
 20
        0.35000
 30
        0.00000
 11
       -1.42000
 21
        0.35000
 31
       -3.50000
 12
       -1.42000
 22
        4.15000
 32
       -3.50000
 13
       -1.42000
 23
        4.15000
 33
        0.00000
999
Building Shading:Mir-BUILDING 1 - COMPONENT BLOCK 2 - SURFACE 8 (72)
  0
3DFACE
  8
Building Shading
 62
195
 10
       -1.42000
 20
        4.15000
 30
        0.00000
 11
       -1.42000
 21
        4.15000
 31
       -3.50000
 12
       -1.42000
 22
        0.35000
 32
       -3.50000
 13
       -1.42000
 23
        0.35000
 33
        0.00000
999
Building Shading:BUILDING 1 - COMPONENT BLOCK 2 - SURFACE 9 (73)
  0
3DFACE
  8
Building Shading
 62
195
 10
        1.42000
 20
        0.35000
 30
        0.00000
 11
        1.42000
 21
        0.35000
 31
       -3.50000
 12
       -1.42000
 22
        0.35000
 32
       -3.50000
 13
       -1.42000
 23
        0.35000
 33
        0.00000
999
Building Shading:Mir-BUILDING 1 - COMPONENT BLOCK 2 - SURFACE 9 (73)
  0
3DFACE
  8
Building Shading
 62
195
 10
       -1.42000
 20
        0.35000
 30
        0.00000
 11
       -1.42000
 21
        0.35000
 31
       -3.50000
 12
        1.42000
 22
        0.35000
 32
       -3.50000
 13
        1.42000
 23
        0.35000
 33
        0.00000
999
Building Shading:BUILDING 1 - COMPONENT BLOCK 2 - SURFACE 10 (74)
  0
3DFACE
  8
Building Shading
 62
195
 10
        1.42000
 20
        4.15000
 30
        0.00000
 11
        1.42000
 21
        4.15000
 31
       -3.50000
 12
        1.42000
 22
        0.35000
 32
       -3.50000
 13
        1.42000
 23
        0.35000
 33
        0.00000
999
Building Shading:Mir-BUILDING 1 - COMPONENT BLOCK 2 - SURFACE 10 (74)
  0
3DFACE
  8
Building Shading
 62
195
 10
        1.42000
 20
        0.35000
 30
        0.00000
 11
        1.42000
 21
        0.35000
 31
       -3.50000
 12
        1.42000
 22
        4.15000
 32
       -3.50000
 13
        1.42000
 23
        4.15000
 33
        0.00000
999
Building Shading:BUILDING 1 - COMPONENT BLOCK 2 - SURFACE 11 (75)
  0
3DFACE
  8
Building Shading
 62
195
 10
        8.37000
 20
        4.15000
 30
        0.00000
 11
        8.37000
 21
        4.15000
 31
       -3.50000
 12
        1.42000
 22
        4.15000
 32
       -3.50000
 13
        1.42000
 23
        4.15000
 33
        0.00000
999
Building Shading:Mir-BUILDING 1 - COMPONENT BLOCK 2 - SURFACE 11 (75)
  0
3DFACE
  8
Building Shading
 62
195
 10
        1.42000
 20
        4.15000
 30
        0.00000
 11
        1.42000
 21
        4.15000
 31
       -3.50000
 12
        8.37000
 22
        4.15000
 32
       -3.50000
 13
        8.37000
 23
        4.15000
 33
        0.00000
999
Building Shading:BUILDING 1 - COMPONENT BLOCK 2 - SURFACE 12 (76)
  0
3DFACE
  8
Building Shading
 62
195
 10
        8.37000
 20
       -2.75000
 30
        0.00000
 11
        8.37000
 21
       -2.75000
 31
       -3.50000
 12
        8.37000
 22
        4.15000
 32
       -3.50000
 13
        8.37000
 23
        4.15000
 33
        0.00000
999
Building Shading:Mir-BUILDING 1 - COMPONENT BLOCK 2 - SURFACE 12 (76)
  0
3DFACE
  8
Building Shading
 62
195
 10
        8.37000
 20
        4.15000
 30
        0.00000
 11
        8.37000
 21
        4.15000
 31
       -3.50000
 12
        8.37000
 22
       -2.75000
 32
       -3.50000
 13
        8.37000
 23
       -2.75000
 33
        0.00000
999
Building Shading:BUILDING 1 - COMPONENT BLOCK 2 - SURFACE 13 (77)
  0
3DFACE
  8
Building Shading
 62
195
 10
       -8.37000
 20
       -2.75000
 30
        0.00000
 11
       -8.37000
 21
       -2.75000
 31
       -3.50000
 12
        8.37000
 22
       -2.75000
 32
       -3.50000
 13
        8.37000
 23
       -2.75000
 33
        0.00000
999
Building Shading:Mir-BUILDING 1 - COMPONENT BLOCK 2 - SURFACE 13 (77)
  0
3DFACE
  8
Building Shading
 62
195
 10
        8.37000
 20
       -2.75000
 30
        0.00000
 11
        8.37000
 21
       -2.75000
 31
       -3.50000
 12
       -8.37000
 22
       -2.75000
 32
       -3.50000
 13
       -8.37000
 23
       -2.75000
 33
        0.00000
999
Building Shading:BUILDING 1 - COMPONENT BLOCK 2 - SURFACE 14 (78)
  0
3DFACE
  8
Building Shading
 62
195
 10
       -8.37000
 20
        4.15000
 30
        0.00000
 11
       -8.37000
 21
        4.15000
 31
       -3.50000
 12
       -8.37000
 22
       -2.75000
 32
       -3.50000
 13
       -8.37000
 23
       -2.75000
 33
        0.00000
999
Building Shading:Mir-BUILDING 1 - COMPONENT BLOCK 2 - SURFACE 14 (78)
  0
3DFACE
  8
Building Shading
 62
195
 10
       -8.37000
 20
       -2.75000
 30
        0.00000
 11
       -8.37000
 21
       -2.75000
 31
       -3.50000
 12
       -8.37000
 22
        4.15000
 32
       -3.50000
 13
       -8.37000
 23
        4.15000
 33
        0.00000
999
BLOCK1:ZONE1:BLOCK1:ZONE1_PARTITION_2_0_0
  0
3DFACE
  8
BLOCK1_ZONE1
 62
 43
 10
       -3.92000
 20
        2.37000
 30
        2.70000
 11
       -3.92000
 21
        2.37000
 31
        0.00000
 12
       -3.92000
 22
        4.15000
 32
        0.00000
 13
       -3.92000
 23
        4.15000
 33
        2.70000
999
BLOCK1:ZONE1:BLOCK1:ZONE1_WALL_3_0_0
  0
3DFACE
  8
BLOCK1_ZONE1
 62
 43
 10
       -3.92000
 20
        4.15000
 30
        2.70000
 11
       -3.92000
 21
        4.15000
 31
        0.00000
 12
       -8.37000
 22
        4.15000
 32
        0.00000
 13
       -8.37000
 23
        4.15000
 33
        2.70000
999
BLOCK1:ZONE1:BLOCK1:ZONE1_WALL_3_0_0_0_0_0_WIN
  0
3DFACE
  8
BLOCK1_ZONE1
 62
143
 10
       -5.90000
 20
        4.15000
 30
        2.00000
 11
       -5.90000
 21
        4.15000
 31
        1.20000
 12
       -6.80000
 22
        4.15000
 32
        1.20000
 13
       -6.80000
 23
        4.15000
 33
        2.00000
999
BLOCK1:ZONE1:BLOCK1:ZONE1_WALL_4_0_0
  0
3DFACE
  8
BLOCK1_ZONE1
 62
 43
 10
       -8.37000
 20
        4.15000
 30
        2.70000
 11
       -8.37000
 21
        4.15000
 31
        0.00000
 12
       -8.37000
 22
        0.35000
 32
        0.00000
 13
       -8.37000
 23
        0.35000
 33
        2.70000
999
BLOCK1:ZONE1:BLOCK1:ZONE1_PARTITION_5_0_0
  0
3DFACE
  8
BLOCK1_ZONE1
 62
 43
 10
       -8.37000
 20
        0.35000
 30
        2.70000
 11
       -8.37000
 21
        0.35000
 31
        0.00000
 12
       -3.92000
 22
        0.35000
 32
        0.00000
 13
       -3.92000
 23
        0.35000
 33
        2.70000
999
BLOCK1:ZONE1:BLOCK1:ZONE1_PARTITION_5_0_0_0_0_0_WIN
  0
3DFACE
  8
BLOCK1_ZONE1
 62
143
 10
       -6.82800
 20
        0.35000
 30
        1.99800
 11
       -6.82800
 21
        0.35000
 31
        0.04200
 12
       -5.03200
 22
        0.35000
 32
        0.04200
 13
       -5.03200
 23
        0.35000
 33
        1.99800
999
BLOCK1:ZONE1:BLOCK1:ZONE1_PARTITION_6_0_0
  0
3DFACE
  8
BLOCK1_ZONE1
 62
 43
 10
       -3.92000
 20
        0.35000
 30
        2.70000
 11
       -3.92000
 21
        0.35000
 31
        0.00000
 12
       -3.92000
 22
        2.37000
 32
        0.00000
 13
       -3.92000
 23
        2.37000
 33
        2.70000
999
BLOCK1:ZONE1:BLOCK1:ZONE1_PARTITION_6_0_0_0_0_0_WIN
  0
3DFACE
  8
BLOCK1_ZONE1
 62
143
 10
       -3.92000
 20
        0.46200
 30
        1.99800
 11
       -3.92000
 21
        0.46200
 31
        0.04200
 12
       -3.92000
 22
        2.25800
 32
        0.04200
 13
       -3.92000
 23
        2.25800
 33
        1.99800
999
BLOCK1:ZONE1:BLOCK1:ZONE1_GROUNDFLOOR_0_0_0
  0
3DFACE
  8
BLOCK1_ZONE1
 62
  8
 10
       -3.92000
 20
        4.15000
 30
        0.00000
 11
       -3.92000
 21
        0.35000
 31
        0.00000
 12
       -8.37000
 22
        0.35000
 32
        0.00000
 13
       -8.37000
 23
        4.15000
 33
        0.00000
999
BLOCK1:ZONE1:BLOCK1:ZONE1_ROOF_1_0_0
  0
3DFACE
  8
BLOCK1_ZONE1
 62
 15
 10
       -8.37000
 20
        4.15000
 30
        2.70000
 11
       -8.37000
 21
        0.35000
 31
        2.70000
 12
       -3.92000
 22
        0.35000
 32
        2.70000
 13
       -3.92000
 23
        4.15000
 33
        2.70000
999
BLOCK1:ZONE3:BLOCK1:ZONE3_PARTITION_4_0_10000
  0
3DFACE
  8
BLOCK1_ZONE3
 62
 43
 10
       -3.92000
 20
        4.15000
 30
        2.70000
 11
       -3.92000
 21
        4.15000
 31
        0.00000
 12
       -3.92000
 22
        2.37000
 32
        0.00000
 13
       -3.92000
 23
        2.37000
 33
        2.70000
999
BLOCK1:ZONE3:BLOCK1:ZONE3_WALL_2_0_0
  0
3DFACE
  8
BLOCK1_ZONE3
 62
 43
 10
       -1.42000
 20
        2.71000
 30
        2.70000
 11
       -1.42000
 21
        2.71000
 31
        0.00000
 12
       -1.42000
 22
        4.15000
 32
        0.00000
 13
       -1.42000
 23
        4.15000
 33
        2.70000
999
BLOCK1:ZONE3:BLOCK1:ZONE3_WALL_3_0_0
  0
3DFACE
  8
BLOCK1_ZONE3
 62
 43
 10
       -1.42000
 20
        4.15000
 30
        2.70000
 11
       -1.42000
 21
        4.15000
 31
        0.00000
 12
       -3.92000
 22
        4.15000
 32
        0.00000
 13
       -3.92000
 23
        4.15000
 33
        2.70000
999
BLOCK1:ZONE3:BLOCK1:ZONE3_WALL_3_0_0_0_0_0_WIN
  0
3DFACE
  8
BLOCK1_ZONE3
 62
143
 10
       -2.89000
 20
        4.15000
 30
        2.00000
 11
       -2.89000
 21
        4.15000
 31
        1.20000
 12
       -3.79000
 22
        4.15000
 32
        1.20000
 13
       -3.79000
 23
        4.15000
 33
        2.00000
999
BLOCK1:ZONE3:BLOCK1:ZONE3_PARTITION_5_0_0
  0
3DFACE
  8
BLOCK1_ZONE3
 62
 43
 10
       -3.92000
 20
        2.37000
 30
        2.70000
 11
       -3.92000
 21
        2.37000
 31
        0.00000
 12
       -2.90000
 22
        2.37000
 32
        0.00000
 13
       -2.90000
 23
        2.37000
 33
        2.70000
999
BLOCK1:ZONE3:BLOCK1:ZONE3_PARTITION_5_0_0_0_0_0_DOOR
  0
3DFACE
  8
BLOCK1_ZONE3
 62
 45
 10
       -3.82700
 20
        2.37000
 30
        2.01700
 11
       -3.82700
 21
        2.37000
 31
        0.00300
 12
       -2.99300
 22
        2.37000
 32
        0.00300
 13
       -2.99300
 23
        2.37000
 33
        2.01700
999
BLOCK1:ZONE3:BLOCK1:ZONE3_PARTITION_6_0_0
  0
3DFACE
  8
BLOCK1_ZONE3
 62
 43
 10
       -2.90000
 20
        2.37000
 30
        2.70000
 11
       -2.90000
 21
        2.37000
 31
        0.00000
 12
       -2.90000
 22
        2.71000
 32
        0.00000
 13
       -2.90000
 23
        2.71000
 33
        2.70000
999
BLOCK1:ZONE3:BLOCK1:ZONE3_PARTITION_7_0_0
  0
3DFACE
  8
BLOCK1_ZONE3
 62
 43
 10
       -2.90000
 20
        2.71000
 30
        2.70000
 11
       -2.90000
 21
        2.71000
 31
        0.00000
 12
       -1.42000
 22
        2.71000
 32
        0.00000
 13
       -1.42000
 23
        2.71000
 33
        2.70000
999
BLOCK1:ZONE3:BLOCK1:ZONE3_GROUNDFLOOR_0_0_0
  0
3DFACE
  8
BLOCK1_ZONE3
 62
  8
 10
       -1.42000
 20
        4.15000
 30
        0.00000
 11
       -1.42000
 21
        2.71000
 31
        0.00000
 12
       -2.90000
 22
        2.71000
 32
        0.00000
 13
       -2.90000
 23
        4.15000
 33
        0.00000
999
BLOCK1:ZONE3:BLOCK1:ZONE3_GROUNDFLOOR_0_0_1
  0
3DFACE
  8
BLOCK1_ZONE3
 62
  8
 10
       -2.90000
 20
        4.15000
 30
        0.00000
 11
       -2.90000
 21
        2.37000
 31
        0.00000
 12
       -3.92000
 22
        2.37000
 32
        0.00000
 13
       -3.92000
 23
        4.15000
 33
        0.00000
999
BLOCK1:ZONE3:BLOCK1:ZONE3_ROOF_1_0_0
  0
3DFACE
  8
BLOCK1_ZONE3
 62
 15
 10
       -3.92000
 20
        2.71000
 30
        2.70000
 11
       -3.92000
 21
        2.37000
 31
        2.70000
 12
       -2.90000
 22
        2.37000
 32
        2.70000
 13
       -2.90000
 23
        2.71000
 33
        2.70000
999
BLOCK1:ZONE3:BLOCK1:ZONE3_ROOF_1_0_1
  0
3DFACE
  8
BLOCK1_ZONE3
 62
 15
 10
       -3.92000
 20
        4.15000
 30
        2.70000
 11
       -3.92000
 21
        2.71000
 31
        2.70000
 12
       -1.42000
 22
        2.71000
 32
        2.70000
 13
       -1.42000
 23
        4.15000
 33
        2.70000
999
BLOCK1:ZONE5:BLOCK1:ZONE5_PARTITION_6_0_10003
  0
3DFACE
  8
BLOCK1_ZONE5
 62
 43
 10
       -3.92000
 20
        2.37000
 30
        2.70000
 11
       -3.92000
 21
        2.37000
 31
        0.00000
 12
       -3.92000
 22
        0.35000
 32
        0.00000
 13
       -3.92000
 23
        0.35000
 33
        2.70000
999
BLOCK1:ZONE5:BLOCK1:ZONE5_PARTITION_6_0_0_0_0_0_WIN_10005
  0
3DFACE
  8
BLOCK1_ZONE5
 62
143
 10
       -3.92000
 20
        2.25800
 30
        1.99800
 11
       -3.92000
 21
        2.25800
 31
        0.04200
 12
       -3.92000
 22
        0.46200
 32
        0.04200
 13
       -3.92000
 23
        0.46200
 33
        1.99800
999
BLOCK1:ZONE5:BLOCK1:ZONE5_PARTITION_5_0_10005
  0
3DFACE
  8
BLOCK1_ZONE5
 62
 43
 10
       -2.90000
 20
        2.37000
 30
        2.70000
 11
       -2.90000
 21
        2.37000
 31
        0.00000
 12
       -3.92000
 22
        2.37000
 32
        0.00000
 13
       -3.92000
 23
        2.37000
 33
        2.70000
999
BLOCK1:ZONE5:BLOCK1:ZONE5_PARTITION_5_0_0_0_0_0_DOOR_10007
  0
3DFACE
  8
BLOCK1_ZONE5
 62
 45
 10
       -2.99300
 20
        2.37000
 30
        2.01700
 11
       -2.99300
 21
        2.37000
 31
        0.00300
 12
       -3.82700
 22
        2.37000
 32
        0.00300
 13
       -3.82700
 23
        2.37000
 33
        2.01700
999
BLOCK1:ZONE5:BLOCK1:ZONE5_WALL_2_0_0
  0
3DFACE
  8
BLOCK1_ZONE5
 62
 43
 10
       -1.42000
 20
        0.35000
 30
        2.70000
 11
       -1.42000
 21
        0.35000
 31
        0.00000
 12
       -1.42000
 22
        1.63000
 32
        0.00000
 13
       -1.42000
 23
        1.63000
 33
        2.70000
999
BLOCK1:ZONE5:BLOCK1:ZONE5_WALL_2_0_0_0_0_0_DOOR
  0
3DFACE
  8
BLOCK1_ZONE5
 62
 45
 10
       -1.42000
 20
        0.56200
 30
        2.01800
 11
       -1.42000
 21
        0.56200
 31
        0.00200
 12
       -1.42000
 22
        1.49800
 32
        0.00200
 13
       -1.42000
 23
        1.49800
 33
        2.01800
999
BLOCK1:ZONE5:BLOCK1:ZONE5_PARTITION_3_0_0
  0
3DFACE
  8
BLOCK1_ZONE5
 62
 43
 10
       -1.42000
 20
        1.63000
 30
        2.70000
 11
       -1.42000
 21
        1.63000
 31
        0.00000
 12
       -2.90000
 22
        1.63000
 32
        0.00000
 13
       -2.90000
 23
        1.63000
 33
        2.70000
999
BLOCK1:ZONE5:BLOCK1:ZONE5_PARTITION_4_0_0
  0
3DFACE
  8
BLOCK1_ZONE5
 62
 43
 10
       -2.90000
 20
        1.63000
 30
        2.70000
 11
       -2.90000
 21
        1.63000
 31
        0.00000
 12
       -2.90000
 22
        2.37000
 32
        0.00000
 13
       -2.90000
 23
        2.37000
 33
        2.70000
999
BLOCK1:ZONE5:BLOCK1:ZONE5_PARTITION_4_0_0_0_0_0_DOOR
  0
3DFACE
  8
BLOCK1_ZONE5
 62
 45
 10
       -2.90000
 20
        1.68300
 30
        2.01700
 11
       -2.90000
 21
        1.68300
 31
        0.00300
 12
       -2.90000
 22
        2.28700
 32
        0.00300
 13
       -2.90000
 23
        2.28700
 33
        2.01700
999
BLOCK1:ZONE5:BLOCK1:ZONE5_PARTITION_7_0_0
  0
3DFACE
  8
BLOCK1_ZONE5
 62
 43
 10
       -3.92000
 20
        0.35000
 30
        2.70000
 11
       -3.92000
 21
        0.35000
 31
        0.00000
 12
       -3.92000
 22
       -2.75000
 32
        0.00000
 13
       -3.92000
 23
       -2.75000
 33
        2.70000
999
BLOCK1:ZONE5:BLOCK1:ZONE5_PARTITION_7_0_0_0_0_0_WIN
  0
3DFACE
  8
BLOCK1_ZONE5
 62
143
 10
       -3.92000
 20
       -0.11200
 30
        1.99800
 11
       -3.92000
 21
       -0.11200
 31
        0.04200
 12
       -3.92000
 22
       -1.90800
 32
        0.04200
 13
       -3.92000
 23
       -1.90800
 33
        1.99800
999
BLOCK1:ZONE5:BLOCK1:ZONE5_WALL_8_0_0
  0
3DFACE
  8
BLOCK1_ZONE5
 62
 43
 10
       -3.92000
 20
       -2.75000
 30
        2.70000
 11
       -3.92000
 21
       -2.75000
 31
        0.00000
 12
        0.05000
 22
       -2.75000
 32
        0.00000
 13
        0.05000
 23
       -2.75000
 33
        2.70000
999
BLOCK1:ZONE5:BLOCK1:ZONE5_WALL_8_0_0_0_0_0_WIN
  0
3DFACE
  8
BLOCK1_ZONE5
 62
143
 10
       -3.31800
 20
       -2.75000
 30
        1.99800
 11
       -3.31800
 21
       -2.75000
 31
        0.04200
 12
       -1.52200
 22
       -2.75000
 32
        0.04200
 13
       -1.52200
 23
       -2.75000
 33
        1.99800
999
BLOCK1:ZONE5:BLOCK1:ZONE5_PARTITION_9_0_0
  0
3DFACE
  8
BLOCK1_ZONE5
 62
 43
 10
        0.05000
 20
       -2.75000
 30
        2.70000
 11
        0.05000
 21
       -2.75000
 31
        0.00000
 12
        0.05000
 22
        0.35000
 32
        0.00000
 13
        0.05000
 23
        0.35000
 33
        2.70000
999
BLOCK1:ZONE5:BLOCK1:ZONE5_WALL_10_0_0
  0
3DFACE
  8
BLOCK1_ZONE5
 62
 43
 10
        0.05000
 20
        0.35000
 30
        2.70000
 11
        0.05000
 21
        0.35000
 31
        0.00000
 12
       -1.42000
 22
        0.35000
 32
        0.00000
 13
       -1.42000
 23
        0.35000
 33
        2.70000
999
BLOCK1:ZONE5:BLOCK1:ZONE5_GROUNDFLOOR_0_0_0
  0
3DFACE
  8
BLOCK1_ZONE5
 62
  8
 10
       -2.90000
 20
        2.37000
 30
        0.00000
 11
       -2.90000
 21
        1.63000
 31
        0.00000
 12
       -3.92000
 22
        1.63000
 32
        0.00000
 13
       -3.92000
 23
        2.37000
 33
        0.00000
999
BLOCK1:ZONE5:BLOCK1:ZONE5_GROUNDFLOOR_0_0_1
  0
3DFACE
  8
BLOCK1_ZONE5
 62
  8
 10
       -1.42000
 20
        1.63000
 30
        0.00000
 11
       -1.42000
 21
        0.35000
 31
        0.00000
 12
       -3.92000
 22
        0.35000
 32
        0.00000
 13
       -3.92000
 23
        1.63000
 33
        0.00000
999
BLOCK1:ZONE5:BLOCK1:ZONE5_GROUNDFLOOR_0_0_2
  0
3DFACE
  8
BLOCK1_ZONE5
 62
  8
 10
        0.05000
 20
        0.35000
 30
        0.00000
 11
        0.05000
 21
       -2.75000
 31
        0.00000
 12
       -3.92000
 22
       -2.75000
 32
        0.00000
 13
       -3.92000
 23
        0.35000
 33
        0.00000
999
BLOCK1:ZONE5:BLOCK1:ZONE5_ROOF_1_0_0
  0
3DFACE
  8
BLOCK1_ZONE5
 62
 15
 10
       -1.42000
 20
        0.35000
 30
        2.70000
 11
       -1.42000
 21
       -2.75000
 31
        2.70000
 12
        0.05000
 22
       -2.75000
 32
        2.70000
 13
        0.05000
 23
        0.35000
 33
        2.70000
999
BLOCK1:ZONE5:BLOCK1:ZONE5_ROOF_1_0_1
  0
3DFACE
  8
BLOCK1_ZONE5
 62
 15
 10
       -2.90000
 20
        1.63000
 30
        2.70000
 11
       -2.90000
 21
       -2.75000
 31
        2.70000
 12
       -1.42000
 22
       -2.75000
 32
        2.70000
 13
       -1.42000
 23
        1.63000
 33
        2.70000
999
BLOCK1:ZONE5:BLOCK1:ZONE5_ROOF_1_0_2
  0
3DFACE
  8
BLOCK1_ZONE5
 62
 15
 10
       -3.92000
 20
        2.37000
 30
        2.70000
 11
       -3.92000
 21
       -2.75000
 31
        2.70000
 12
       -2.90000
 22
       -2.75000
 32
        2.70000
 13
       -2.90000
 23
        2.37000
 33
        2.70000
999
BLOCK1:ZONE2:BLOCK1:ZONE2_PARTITION_3_0_10001
  0
3DFACE
  8
BLOCK1_ZONE2
 62
 43
 10
       -3.92000
 20
        0.35000
 30
        2.70000
 11
       -3.92000
 21
        0.35000
 31
        0.00000
 12
       -8.37000
 22
        0.35000
 32
        0.00000
 13
       -8.37000
 23
        0.35000
 33
        2.70000
999
BLOCK1:ZONE2:BLOCK1:ZONE2_PARTITION_3_0_0_0_0_0_WIN_10003
  0
3DFACE
  8
BLOCK1_ZONE2
 62
143
 10
       -5.03200
 20
        0.35000
 30
        1.99800
 11
       -5.03200
 21
        0.35000
 31
        0.04200
 12
       -6.82800
 22
        0.35000
 32
        0.04200
 13
       -6.82800
 23
        0.35000
 33
        1.99800
999
BLOCK1:ZONE2:BLOCK1:ZONE2_PARTITION_2_0_10012
  0
3DFACE
  8
BLOCK1_ZONE2
 62
 43
 10
       -3.92000
 20
       -2.75000
 30
        2.70000
 11
       -3.92000
 21
       -2.75000
 31
        0.00000
 12
       -3.92000
 22
        0.35000
 32
        0.00000
 13
       -3.92000
 23
        0.35000
 33
        2.70000
999
BLOCK1:ZONE2:BLOCK1:ZONE2_PARTITION_2_0_0_0_0_0_WIN_10014
  0
3DFACE
  8
BLOCK1_ZONE2
 62
143
 10
       -3.92000
 20
       -1.90800
 30
        1.99800
 11
       -3.92000
 21
       -1.90800
 31
        0.04200
 12
       -3.92000
 22
       -0.11200
 32
        0.04200
 13
       -3.92000
 23
       -0.11200
 33
        1.99800
999
BLOCK1:ZONE2:BLOCK1:ZONE2_WALL_4_0_0
  0
3DFACE
  8
BLOCK1_ZONE2
 62
 43
 10
       -8.37000
 20
        0.35000
 30
        2.70000
 11
       -8.37000
 21
        0.35000
 31
        0.00000
 12
       -8.37000
 22
       -2.75000
 32
        0.00000
 13
       -8.37000
 23
       -2.75000
 33
        2.70000
999
BLOCK1:ZONE2:BLOCK1:ZONE2_WALL_5_0_0
  0
3DFACE
  8
BLOCK1_ZONE2
 62
 43
 10
       -8.37000
 20
       -2.75000
 30
        2.70000
 11
       -8.37000
 21
       -2.75000
 31
        0.00000
 12
       -3.92000
 22
       -2.75000
 32
        0.00000
 13
       -3.92000
 23
       -2.75000
 33
        2.70000
999
BLOCK1:ZONE2:BLOCK1:ZONE2_WALL_5_0_0_0_0_0_WIN
  0
3DFACE
  8
BLOCK1_ZONE2
 62
143
 10
       -6.78800
 20
       -2.75000
 30
        1.99800
 11
       -6.78800
 21
       -2.75000
 31
        0.04200
 12
       -4.99200
 22
       -2.75000
 32
        0.04200
 13
       -4.99200
 23
       -2.75000
 33
        1.99800
999
BLOCK1:ZONE2:BLOCK1:ZONE2_GROUNDFLOOR_0_0_0
  0
3DFACE
  8
BLOCK1_ZONE2
 62
  8
 10
       -3.92000
 20
        0.35000
 30
        0.00000
 11
       -3.92000
 21
       -2.75000
 31
        0.00000
 12
       -8.37000
 22
       -2.75000
 32
        0.00000
 13
       -8.37000
 23
        0.35000
 33
        0.00000
999
BLOCK1:ZONE2:BLOCK1:ZONE2_ROOF_1_0_0
  0
3DFACE
  8
BLOCK1_ZONE2
 62
 15
 10
       -8.37000
 20
        0.35000
 30
        2.70000
 11
       -8.37000
 21
       -2.75000
 31
        2.70000
 12
       -3.92000
 22
       -2.75000
 32
        2.70000
 13
       -3.92000
 23
        0.35000
 33
        2.70000
999
BLOCK1:ZONE4:BLOCK1:ZONE4_PARTITION_4_0_10007
  0
3DFACE
  8
BLOCK1_ZONE4
 62
 43
 10
       -2.90000
 20
        2.71000
 30
        2.70000
 11
       -2.90000
 21
        2.71000
 31
        0.00000
 12
       -2.90000
 22
        2.37000
 32
        0.00000
 13
       -2.90000
 23
        2.37000
 33
        2.70000
999
BLOCK1:ZONE4:BLOCK1:ZONE4_PARTITION_3_0_10008
  0
3DFACE
  8
BLOCK1_ZONE4
 62
 43
 10
       -1.42000
 20
        2.71000
 30
        2.70000
 11
       -1.42000
 21
        2.71000
 31
        0.00000
 12
       -2.90000
 22
        2.71000
 32
        0.00000
 13
       -2.90000
 23
        2.71000
 33
        2.70000
999
BLOCK1:ZONE4:BLOCK1:ZONE4_PARTITION_6_0_10009
  0
3DFACE
  8
BLOCK1_ZONE4
 62
 43
 10
       -2.90000
 20
        1.63000
 30
        2.70000
 11
       -2.90000
 21
        1.63000
 31
        0.00000
 12
       -1.42000
 22
        1.63000
 32
        0.00000
 13
       -1.42000
 23
        1.63000
 33
        2.70000
999
BLOCK1:ZONE4:BLOCK1:ZONE4_PARTITION_5_0_10010
  0
3DFACE
  8
BLOCK1_ZONE4
 62
 43
 10
       -2.90000
 20
        2.37000
 30
        2.70000
 11
       -2.90000
 21
        2.37000
 31
        0.00000
 12
       -2.90000
 22
        1.63000
 32
        0.00000
 13
       -2.90000
 23
        1.63000
 33
        2.70000
999
BLOCK1:ZONE4:BLOCK1:ZONE4_PARTITION_5_0_0_0_0_0_DOOR_10012
  0
3DFACE
  8
BLOCK1_ZONE4
 62
 45
 10
       -2.90000
 20
        2.28700
 30
        2.01700
 11
       -2.90000
 21
        2.28700
 31
        0.00300
 12
       -2.90000
 22
        1.68300
 32
        0.00300
 13
       -2.90000
 23
        1.68300
 33
        2.01700
999
BLOCK1:ZONE4:BLOCK1:ZONE4_WALL_2_0_0
  0
3DFACE
  8
BLOCK1_ZONE4
 62
 43
 10
       -1.42000
 20
        1.63000
 30
        2.70000
 11
       -1.42000
 21
        1.63000
 31
        0.00000
 12
       -1.42000
 22
        2.71000
 32
        0.00000
 13
       -1.42000
 23
        2.71000
 33
        2.70000
999
BLOCK1:ZONE4:BLOCK1:ZONE4_GROUNDFLOOR_0_0_0
  0
3DFACE
  8
BLOCK1_ZONE4
 62
  8
 10
       -1.42000
 20
        2.71000
 30
        0.00000
 11
       -1.42000
 21
        1.63000
 31
        0.00000
 12
       -2.90000
 22
        1.63000
 32
        0.00000
 13
       -2.90000
 23
        2.71000
 33
        0.00000
999
BLOCK1:ZONE4:BLOCK1:ZONE4_ROOF_1_0_0
  0
3DFACE
  8
BLOCK1_ZONE4
 62
 15
 10
       -2.90000
 20
        2.71000
 30
        2.70000
 11
       -2.90000
 21
        1.63000
 31
        2.70000
 12
       -1.42000
 22
        1.63000
 32
        2.70000
 13
       -1.42000
 23
        2.71000
 33
        2.70000
  0
ENDSEC
  0
EOF
