Program Version,EnergyPlus, Version 9.6.0-f420c06a69, YMD=2022.03.09 11:55
! <Version>, Version ID
 Version, 9.6
! <Timesteps per Hour>, #TimeSteps, Minutes per TimeStep {minutes}
 Timesteps per Hour,  2, 30
! <System Convergence Limits>, Minimum System TimeStep {minutes}, Max HVAC Iterations, Minimum Plant Iterations, Maximum Plant Iterations
 System Convergence Limits, 1, 25, 2, 8
! <Simulation Control>, Do Zone Sizing, Do System Sizing, Do Plant Sizing, Do Design Days, Do Weather Simulation, Do HVAC Sizing Simulation
 Simulation Control, Yes, Yes, Yes, No, Yes, No
! <Performance Precision Tradeoffs>, Use Coil Direct Simulation, Zone Radiant Exchange Algorithm, Override Mode, Number of Timestep In Hour, Force Euler Method, Minimum Number of Warmup Days, Force Suppress All Begin Environment Resets, Minimum System Timestep, MaxZoneTempDiff, MaxAllowedDelTemp
 Performance Precision Tradeoffs, No, ScriptF, Normal, 2, No, 1, No, 1.0, 0.300, 2.0000E-003
! <Output Reporting Tolerances>, Tolerance for Time Heating Setpoint Not Met, Tolerance for Zone Cooling Setpoint Not Met Time
 Output Reporting Tolerances, 1.110, 1.110, 
! <Site:GroundTemperature:BuildingSurface>,Jan{C},Feb{C},Mar{C},Apr{C},May{C},Jun{C},Jul{C},Aug{C},Sep{C},Oct{C},Nov{C},Dec{C}
 Site:GroundTemperature:BuildingSurface,  18.00,  18.00,  18.00,  18.00,  18.00,  18.00,  18.00,  18.00,  18.00,  18.00,  18.00,  18.00
! <Site:GroundTemperature:FCfactorMethod>,Jan{C},Feb{C},Mar{C},Apr{C},May{C},Jun{C},Jul{C},Aug{C},Sep{C},Oct{C},Nov{C},Dec{C}
 Site:GroundTemperature:FCfactorMethod,   6.09,   5.28,   6.71,   8.95,  14.81,  19.34,  22.39,  23.32,  21.74,  18.22,  13.53,   9.18
! <Site:GroundTemperature:Shallow>,Jan{C},Feb{C},Mar{C},Apr{C},May{C},Jun{C},Jul{C},Aug{C},Sep{C},Oct{C},Nov{C},Dec{C}
 Site:GroundTemperature:Shallow,  14.00,  14.00,  14.00,  14.00,  14.00,  14.00,  14.00,  14.00,  14.00,  14.00,  14.00,  14.00
! <Site:GroundTemperature:Deep>,Jan{C},Feb{C},Mar{C},Apr{C},May{C},Jun{C},Jul{C},Aug{C},Sep{C},Oct{C},Nov{C},Dec{C}
 Site:GroundTemperature:Deep,  14.00,  14.00,  14.00,  14.00,  14.00,  14.00,  14.00,  14.00,  14.00,  14.00,  14.00,  14.00
! <Site:GroundReflectance>,Jan{dimensionless},Feb{dimensionless},Mar{dimensionless},Apr{dimensionless},May{dimensionless},Jun{dimensionless},Jul{dimensionless},Aug{dimensionless},Sep{dimensionless},Oct{dimensionless},Nov{dimensionless},Dec{dimensionless}
 Site:GroundReflectance,  0.20,  0.20,  0.20,  0.20,  0.20,  0.20,  0.20,  0.20,  0.20,  0.20,  0.20,  0.20
! <Site:GroundReflectance:SnowModifier>, Normal, Daylighting {dimensionless}
 Site:GroundReflectance:SnowModifier,   2.000,   2.000
! <Site:GroundReflectance:Snow>,Jan{dimensionless},Feb{dimensionless},Mar{dimensionless},Apr{dimensionless},May{dimensionless},Jun{dimensionless},Jul{dimensionless},Aug{dimensionless},Sep{dimensionless},Oct{dimensionless},Nov{dimensionless},Dec{dimensionless}
 Site:GroundReflectance:Snow,  0.40,  0.40,  0.40,  0.40,  0.40,  0.40,  0.40,  0.40,  0.40,  0.40,  0.40,  0.40
! <Site:GroundReflectance:Snow:Daylighting>,Jan{dimensionless},Feb{dimensionless},Mar{dimensionless},Apr{dimensionless},May{dimensionless},Jun{dimensionless},Jul{dimensionless},Aug{dimensionless},Sep{dimensionless},Oct{dimensionless},Nov{dimensionless},Dec{dimensionless}
 Site:GroundReflectance:Snow:Daylighting,  0.40,  0.40,  0.40,  0.40,  0.40,  0.40,  0.40,  0.40,  0.40,  0.40,  0.40,  0.40
! <Environment:Weather Station>,Wind Sensor Height Above Ground {m},Wind Speed Profile Exponent {},Wind Speed Profile Boundary Layer Thickness {m},Air Temperature Sensor Height Above Ground {m},Wind Speed Modifier Coefficient-Internal,Temperature Modifier Coefficient-Internal
Environment:Weather Station,10.000,0.140,270.000,1.500,1.586,9.750E-003
! <Site:Location>, Location Name, Latitude {N+/S- Deg}, Longitude {E+/W- Deg},  Time Zone Number {GMT+/-}, Elevation {m},  Standard Pressure at Elevation {Pa}, Standard RhoAir at Elevation
Site:Location,Nagasaki JA - MN7 WMO#=0,32.75,129.87,9.00,0.00,101325,1.2043
! <Site Water Mains Temperature Information>,Calculation Method{},Water Mains Temperature Schedule Name{},Annual Average Outdoor Air Temperature{C},Maximum Difference In Monthly Average Outdoor Air Temperatures{deltaC},Fixed Default Water Mains Temperature{C}
Site Water Mains Temperature Information,FixedDefault,NA,NA,NA,10.0
! <Building Information>, Building Name,North Axis {deg},Terrain,  Loads Convergence Tolerance Value,Temperature Convergence Tolerance Value,  Solar Distribution,Maximum Number of Warmup Days,Minimum Number of Warmup Days
 Building Information,Building,0.000,Suburbs,4.00000E-002,0.40000,FullExterior,25,6
! <Inside Convection Algorithm>, Algorithm {Simple | TARP | CeilingDiffuser | AdaptiveConvectionAlgorithm}
Inside Convection Algorithm,TARP
! <Outside Convection Algorithm>, Algorithm {SimpleCombined | TARP | MoWitt | DOE-2 | AdaptiveConvectionAlgorithm}
Outside Convection Algorithm,DOE-2
! <Sky Radiance Distribution>, Value {Anisotropic}
Sky Radiance Distribution,Anisotropic
! <Zone Air Solution Algorithm>, Value {ThirdOrderBackwardDifference | AnalyticalSolution | EulerMethod}
 Zone Air Solution Algorithm, ThirdOrderBackwardDifference
! <Zone Air Carbon Dioxide Balance Simulation>, Simulation {Yes/No}, Carbon Dioxide Concentration
 Zone Air Carbon Dioxide Balance Simulation, No,N/A
! <Zone Air Generic Contaminant Balance Simulation>, Simulation {Yes/No}, Generic Contaminant Concentration
 Zone Air Generic Contaminant Balance Simulation, No,N/A
! <Zone Air Mass Flow Balance Simulation>, Enforce Mass Balance, Adjust Zone Mixing and Return {AdjustMixingOnly | AdjustReturnOnly | AdjustMixingThenReturn | AdjustReturnThenMixing | None}, Adjust Zone Infiltration {AddInfiltration | AdjustInfiltration | None}, Infiltration Zones {MixingSourceZonesOnly | AllZones}
 Zone Air Mass Flow Balance Simulation, No,N/A,N/A,N/A
! <HVACSystemRootFindingAlgorithm>, Value {RegulaFalsi | Bisection | BisectionThenRegulaFalsi | RegulaFalsiThenBisection}
 HVACSystemRootFindingAlgorithm, RegulaFalsi
! <Environment:Site Atmospheric Variation>,Wind Speed Profile Exponent {},Wind Speed Profile Boundary Layer Thickness {m},Air Temperature Gradient Coefficient {K/m}
Environment:Site Atmospheric Variation,0.220,370.000,6.500000E-003
! <Surface Geometry>,Starting Corner,Vertex Input Direction,Coordinate System,Daylight Reference Point Coordinate System,Rectangular (Simple) Surface Coordinate System
 Surface Geometry,LowerLeftCorner,Counterclockwise,RelativeCoordinateSystem,RelativeCoordinateSystem,RelativeToZoneOrigin
! <Surface Heat Transfer Algorithm>, Value {CTF - ConductionTransferFunction | EMPD - MoisturePenetrationDepthConductionTransferFunction | CondFD - ConductionFiniteDifference | HAMT - CombinedHeatAndMoistureFiniteElement} - Description,Inside Surface Max Temperature Limit{C}, Surface Convection Coefficient Lower Limit {W/m2-K}, Surface Convection Coefficient Upper Limit {W/m2-K}
Surface Heat Transfer Algorithm, CTF - ConductionTransferFunction,2000,1.00E-008,1000.0
! <Shading Summary>, Number of Fixed Detached Shades, Number of Building Detached Shades, Number of Attached Shades
 Shading Summary,0,156,0
! <Zone Summary>, Number of Zones, Number of Zone Surfaces, Number of SubSurfaces
 Zone Summary,5,60,15
! <Zone Information>,Zone Name,North Axis {deg},Origin X-Coordinate {m},Origin Y-Coordinate {m},Origin Z-Coordinate {m},Centroid X-Coordinate {m},Centroid Y-Coordinate {m},Centroid Z-Coordinate {m},Type,Zone Multiplier,Zone List Multiplier,Minimum X {m},Maximum X {m},Minimum Y {m},Maximum Y {m},Minimum Z {m},Maximum Z {m},Ceiling Height {m},Volume {m3},Zone Inside Convection Algorithm {Simple-Detailed-CeilingDiffuser-TrombeWall},Zone Outside Convection Algorithm {Simple-Detailed-Tarp-MoWitt-DOE-2-BLAST}, Floor Area {m2},Exterior Gross Wall Area {m2},Exterior Net Wall Area {m2},Exterior Window Area {m2}, Number of Surfaces, Number of SubSurfaces, Number of Shading SubSurfaces,  Part of Total Building Area
 Zone Information, BLOCK1:ZONE1,0.0,0.00,0.00,0.00,-6.15,2.25,1.35,1,1,1,-8.37,-3.92,0.35,4.15,0.00,2.70,2.70,42.38,TARP,DOE-2,15.70,22.28,21.41,0.72,7,3,0,Yes
 Zone Information, BLOCK1:ZONE3,0.0,0.00,0.00,0.00,-2.73,3.33,1.35,1,1,1,-3.92,-1.42,2.37,4.15,0.00,2.70,2.70,9.03,TARP,DOE-2,3.34,10.64,9.78,0.72,10,2,0,Yes
 Zone Information, BLOCK1:ZONE5,0.0,0.00,0.00,0.00,-2.15,-0.50,1.35,1,1,1,-3.92,5.00E-002,-2.75,2.37,0.00,2.70,2.70,40.58,TARP,DOE-2,15.03,18.14,12.44,3.51,15,6,0,Yes
 Zone Information, BLOCK1:ZONE2,0.0,0.00,0.00,0.00,-6.15,-1.20,1.35,1,1,1,-8.37,-3.92,-2.75,0.35,0.00,2.70,2.70,34.25,TARP,DOE-2,12.69,20.39,16.57,3.51,6,3,0,Yes
 Zone Information, BLOCK1:ZONE4,0.0,0.00,0.00,0.00,-2.16,2.17,1.35,1,1,1,-2.90,-1.42,1.63,2.71,0.00,2.70,2.70,3.52,TARP,DOE-2,1.30,2.92,2.92,0.00,7,1,0,Yes
! <Zone Internal Gains Nominal>,Zone Name, Floor Area {m2},# Occupants,Area per Occupant {m2/person},Occupant per Area {person/m2},Interior Lighting {W/m2},Electric Load {W/m2},Gas Load {W/m2},Other Load {W/m2},Hot Water Eq {W/m2},Steam Equipment {W/m2},Sum Loads per Area {W/m2},Outdoor Controlled Baseboard Heat
 Zone Internal Gains Nominal, BLOCK1:ZONE1,15.70,0.5,30.938,3.232E-002,4.741,0.000,0.000,4.741,0.000,0.000,9.481,No
 Zone Internal Gains Nominal, BLOCK1:ZONE3,3.34,0.1,28.245,3.540E-002,5.193,0.000,0.000,5.193,0.000,0.000,10.385,No
 Zone Internal Gains Nominal, BLOCK1:ZONE5,15.03,0.5,30.807,3.246E-002,4.761,0.000,0.000,4.761,0.000,0.000,9.522,No
 Zone Internal Gains Nominal, BLOCK1:ZONE2,12.69,0.4,30.651,3.263E-002,4.785,0.000,0.000,4.785,0.000,0.000,9.570,No
 Zone Internal Gains Nominal, BLOCK1:ZONE4,1.30,4.8E-002,27.181,3.679E-002,5.396,0.000,0.000,5.396,0.000,0.000,10.792,No
! <People Internal Gains Nominal>,Name,Schedule Name,Zone Name,Zone Floor Area {m2},# Zone Occupants,Number of People {},People/Floor Area {person/m2},Floor Area per person {m2/person},Fraction Radiant,Fraction Convected,Sensible Fraction Calculation,Activity level,ASHRAE 55 Warnings,Carbon Dioxide Generation Rate,Nominal Minimum Number of People,Nominal Maximum Number of People
 People Internal Gains Nominal, PEOPLE BLOCK1:ZONE1,CTE_RESIDENTIAL_OCCUPANCY,BLOCK1:ZONE1,15.70,0.5,0.5,3.232E-002,30.938,0.300,0.700,AutoCalculate,ACTIVITY SCHEDULE 124,Yes,3.8200E-008,0,1
 People Internal Gains Nominal, PEOPLE BLOCK1:ZONE3,CTE_RESIDENTIAL_OCCUPANCY,BLOCK1:ZONE3,3.34,0.1,0.1,3.540E-002,28.245,0.300,0.700,AutoCalculate,ACTIVITY SCHEDULE 132,Yes,3.8200E-008,0,0
 People Internal Gains Nominal, PEOPLE BLOCK1:ZONE5,CTE_RESIDENTIAL_OCCUPANCY,BLOCK1:ZONE5,15.03,0.5,0.5,3.246E-002,30.807,0.300,0.700,AutoCalculate,ACTIVITY SCHEDULE 158,Yes,3.8200E-008,0,0
 People Internal Gains Nominal, PEOPLE BLOCK1:ZONE2,CTE_RESIDENTIAL_OCCUPANCY,BLOCK1:ZONE2,12.69,0.4,0.4,3.263E-002,30.651,0.300,0.700,AutoCalculate,ACTIVITY SCHEDULE 182,Yes,3.8200E-008,0,0
 People Internal Gains Nominal, PEOPLE BLOCK1:ZONE4,CTE_RESIDENTIAL_OCCUPANCY,BLOCK1:ZONE4,1.30,4.8E-002,4.8E-002,3.679E-002,27.181,0.300,0.700,AutoCalculate,ACTIVITY SCHEDULE 196,Yes,3.8200E-008,0,5E-002
! <Lights Internal Gains Nominal>,Name,Schedule Name,Zone Name,Zone Floor Area {m2},# Zone Occupants,Lighting Level {W},Lights/Floor Area {W/m2},Lights per person {W/person},Fraction Return Air,Fraction Radiant,Fraction Short Wave,Fraction Convected,Fraction Replaceable,End-Use Category,Nominal Minimum Lighting Level {W},Nominal Maximum Lighting Level {W}
 Lights Internal Gains Nominal, BLOCK1:ZONE1,CTE_RESIDENTIAL_EQUIPMENT AND LIGHTING,BLOCK1:ZONE1,15.70,0.5,74.404,4.741,146.667,0.000,0.300,0.200,0.500,1.000,General,0.000,74.404
 Lights Internal Gains Nominal, BLOCK1:ZONE3,CTE_RESIDENTIAL_EQUIPMENT AND LIGHTING,BLOCK1:ZONE3,3.34,0.1,17.366,5.193,146.667,0.000,0.300,0.200,0.500,1.000,General,0.000,17.366
 Lights Internal Gains Nominal, BLOCK1:ZONE5,CTE_RESIDENTIAL_EQUIPMENT AND LIGHTING,BLOCK1:ZONE5,15.03,0.5,71.552,4.761,146.667,0.000,0.300,0.200,0.500,1.000,General,0.000,71.552
 Lights Internal Gains Nominal, BLOCK1:ZONE2,CTE_RESIDENTIAL_EQUIPMENT AND LIGHTING,BLOCK1:ZONE2,12.69,0.4,60.698,4.785,146.667,0.000,0.300,0.200,0.500,1.000,General,0.000,60.698
 Lights Internal Gains Nominal, BLOCK1:ZONE4,CTE_RESIDENTIAL_EQUIPMENT AND LIGHTING,BLOCK1:ZONE4,1.30,4.8E-002,7.033,5.396,146.667,0.000,0.300,0.200,0.500,1.000,General,0.000,7.033
! <OtherEquipment Internal Gains Nominal>,Name,Schedule Name,Zone Name,Zone Floor Area {m2},# Zone Occupants,Equipment Level {W},Equipment/Floor Area {W/m2},Equipment per person {W/person},Fraction Latent,Fraction Radiant,Fraction Lost,Fraction Convected,Nominal Minimum Equipment Level {W},Nominal Maximum Equipment Level {W}
 OtherEquipment Internal Gains Nominal, BLOCK1:ZONE1 MISCELLANEOUS GAIN 1,CTE_RESIDENTIAL_EQUIPMENT AND LIGHTING,BLOCK1:ZONE1,15.70,0.5,74.404,4.741,146.667,0.100,0.630,0.000,0.270,0.000,74.404
 OtherEquipment Internal Gains Nominal, BLOCK1:ZONE3 MISCELLANEOUS GAIN 1,CTE_RESIDENTIAL_EQUIPMENT AND LIGHTING,BLOCK1:ZONE3,3.34,0.1,17.366,5.193,146.667,0.100,0.630,0.000,0.270,0.000,17.366
 OtherEquipment Internal Gains Nominal, BLOCK1:ZONE5 MISCELLANEOUS GAIN 1,CTE_RESIDENTIAL_EQUIPMENT AND LIGHTING,BLOCK1:ZONE5,15.03,0.5,71.552,4.761,146.667,0.100,0.630,0.000,0.270,0.000,71.552
 OtherEquipment Internal Gains Nominal, BLOCK1:ZONE2 MISCELLANEOUS GAIN 1,CTE_RESIDENTIAL_EQUIPMENT AND LIGHTING,BLOCK1:ZONE2,12.69,0.4,60.698,4.785,146.667,0.100,0.630,0.000,0.270,0.000,60.698
 OtherEquipment Internal Gains Nominal, BLOCK1:ZONE4 MISCELLANEOUS GAIN 1,CTE_RESIDENTIAL_EQUIPMENT AND LIGHTING,BLOCK1:ZONE4,1.30,4.8E-002,7.033,5.396,146.667,0.100,0.630,0.000,0.270,0.000,7.033
! <Solar View Factor Check Values>,Zone/Enclosure Name,Original Check Value,Calculated Fixed Check Value,Final Check Value,Number of Iterations,Fixed RowSum Convergence,Used RowSum Convergence
Solar View Factor Check Values,BLOCK1:ZONE1,1.776357E-015,6.226699E-004,6.226699E-004,11,6.226699E-004,6.226699E-004
Solar View Factor Check Values,BLOCK1:ZONE3,1.776357E-015,7.405298E-004,7.405298E-004,6,7.405298E-004,7.405298E-004
Solar View Factor Check Values,BLOCK1:ZONE5,0.000000,8.720242E-004,8.720242E-004,9,8.720242E-004,8.720242E-004
Solar View Factor Check Values,BLOCK1:ZONE2,5.329071E-015,6.995675E-004,6.995675E-004,9,6.995675E-004,6.995675E-004
Solar View Factor Check Values,BLOCK1:ZONE4,7.105427E-015,9.949728E-004,9.949728E-004,10,9.949728E-004,9.949728E-004
! <Construction CTF>,Construction Name,Index,#Layers,#CTFs,Time Step {hours},ThermalConductance {w/m2-K},OuterThermalAbsorptance,InnerThermalAbsorptance,OuterSolarAbsorptance,InnerSolarAbsorptance,Roughness
! <Material CTF Summary>,Material Name,Thickness {m},Conductivity {w/m-K},Density {kg/m3},Specific Heat {J/kg-K},ThermalResistance {m2-K/w}
! <Material:Air>,Material Name,ThermalResistance {m2-K/w}
! <CTF>,Time,Outside,Cross,Inside,Flux (except final one)
 Construction CTF,GBXML PASSIVE FLOOR NO INSULATION CARPET OR HARDWOOD - AIMO795,   3,   2,   3,   0.500,      2.362    ,   0.900,   0.900,   0.700,   0.700,Rough
 Material CTF Summary,GBXML CARPET - AIMO798_.O127,  0.0127,         0.060,    288.000,     1380.000,  0.2117    
 Material CTF Summary,GBXML CARPET - AIMO798_.O127,  0.0127,         0.060,    288.000,     1380.000,  0.2117    
 CTF,   3,     -0.92758035E-09,      0.31399358E-09,     -0.92758036E-09,     -0.52426272E-22
 CTF,   2,      0.10862535E-01,      0.38562326E-02,      0.10862535E-01,     -0.29766605E-08
 CTF,   1,      -1.8707225    ,      0.90034975    ,      -1.8707225    ,      0.16796615E-01
 CTF,   0,       4.1823876    ,       1.4183217    ,       4.1823876    
 Construction CTF,GBXML R-O WOOD OR STEEL FRAME ROOF - AIMO82O,   5,   3,   4,   0.500,      3.927    ,   0.900,   0.900,   0.700,   0.700,Rough
 Material CTF Summary,GBXML BLT-UP ROOF 3/8 IN  (BRO1) - AIMO824_.OO95,  0.0095,         0.163,   1121.400,     1465.380,  0.5846E-01
 Material CTF Summary,GBXML BLT-UP ROOF 3/8 IN  (BRO1) - AIMO824_.OO95,  0.0095,         0.163,   1121.400,     1465.380,  0.5846E-01
 Material CTF Summary,GBXML PLYWD 5/8 IN  (PWO4) - AIMO834_.O159,  0.0159,         0.115,    544.680,     1214.172,  0.1377    
 CTF,   4,      0.44494187E-10,      0.58223041E-11,      0.17117575E-10,      0.99636510E-16
 CTF,   3,     -0.15752193E-03,      0.33804121E-04,     -0.80163686E-04,      0.34366295E-10
 CTF,   2,      0.67549482    ,      0.12542956    ,      0.36983762    ,     -0.79090978E-04
 CTF,   1,      -11.038117    ,       2.0224619    ,      -5.0442109    ,      0.20054388    
 CTF,   0,       13.502577    ,      0.99187244    ,       7.8142511    
 Construction CTF,GBXML R-O METAL FRAME WALL - AIMO779,   7,   3,   4,   0.500,      3.360    ,   0.900,   0.900,   0.700,   0.700,Rough
 Material CTF Summary,GBXML GYPBD 5/8 IN  (GPO2) - AIMO783_.O159,  0.0159,         0.160,    801.000,      837.360,  0.9921E-01
 Material CTF Summary,GBXML GYPBD 5/8 IN  (GPO2) - AIMO783_.O159,  0.0159,         0.160,    801.000,      837.360,  0.9921E-01
 Material CTF Summary,GBXML GYPBD 5/8 IN  (GPO2) - AIMO783_.O159,  0.0159,         0.160,    801.000,      837.360,  0.9921E-01
 CTF,   4,      0.95809082E-11,      0.22695569E-11,      0.95809082E-11,     -0.32814627E-15
 CTF,   3,     -0.12982154E-03,      0.32221570E-04,     -0.12982154E-03,      0.13004279E-10
 CTF,   2,      0.34695946    ,      0.10455531    ,      0.34695946    ,     -0.10704276E-03
 CTF,   1,      -6.1790383    ,       1.7963464    ,      -6.1790383    ,      0.15719392    
 CTF,   0,       8.6642907    ,      0.93114817    ,       8.6642907    
 Construction CTF,GBXML R-O METAL FRAME WALL - AIMO779_REV,   8,   3,   4,   0.500,      3.360    ,   0.900,   0.900,   0.700,   0.700,Rough
 Material CTF Summary,GBXML GYPBD 5/8 IN  (GPO2) - AIMO783_.O159,  0.0159,         0.160,    801.000,      837.360,  0.9921E-01
 Material CTF Summary,GBXML GYPBD 5/8 IN  (GPO2) - AIMO783_.O159,  0.0159,         0.160,    801.000,      837.360,  0.9921E-01
 Material CTF Summary,GBXML GYPBD 5/8 IN  (GPO2) - AIMO783_.O159,  0.0159,         0.160,    801.000,      837.360,  0.9921E-01
 CTF,   4,      0.95809082E-11,      0.22695569E-11,      0.95809082E-11,     -0.32814627E-15
 CTF,   3,     -0.12982154E-03,      0.32221570E-04,     -0.12982154E-03,      0.13004279E-10
 CTF,   2,      0.34695946    ,      0.10455531    ,      0.34695946    ,     -0.10704276E-03
 CTF,   1,      -6.1790383    ,       1.7963464    ,      -6.1790383    ,      0.15719392    
 CTF,   0,       8.6642907    ,      0.93114817    ,       8.6642907    
 Construction CTF,GBXML R-O 8 IN CMU WALL - AIMO8O8,   9,   1,   5,   0.500,      6.453    ,   0.900,   0.900,   0.700,   0.700,Rough
 Material CTF Summary,GBXML CONC HEAVYWEIGHT 14OLB 8 IN  (CCO5) - AIMO812_.2O32,  0.2032,         1.311,   2242.800,      837.360,  0.1550    
 CTF,   5,     -0.49797343E-02,      0.12562711E-04,     -0.49797343E-02,      0.75140624E-04
 CTF,   4,      0.34664419    ,      0.37971688E-02,      0.34664419    ,     -0.56579203E-02
 CTF,   3,      -5.7642347    ,      0.91648745E-01,      -5.7642347    ,      0.10762139    
 CTF,   2,       29.412416    ,      0.34248163    ,       29.412416    ,     -0.66158631    
 CTF,   1,      -52.488142    ,      0.20716616    ,      -52.488142    ,       1.4578853    
 CTF,   0,       29.154302    ,      0.10898948E-01,       29.154302    
 Construction CTF,GBXML WOODEN - AIMO842,  11,   1,   4,   0.500,      3.989    ,   0.900,   0.900,   0.700,   0.700,Rough
 Material CTF Summary,GBXML 1 1/2 IN WOOD - AIMO845_.O376,  0.0376,         0.150,    608.000,     1630.000,  0.2507    
 CTF,   4,      0.13030429E-08,      0.10299812E-08,      0.13030429E-08,     -0.44428507E-15
 CTF,   3,     -0.32012604E-03,      0.22062426E-03,     -0.32012604E-03,      0.21196130E-07
 CTF,   2,      0.32689886    ,      0.16407328    ,      0.32689886    ,     -0.78774264E-03
 CTF,   1,      -6.7000521    ,       2.0632032    ,      -6.7000521    ,      0.18547145    
 CTF,   0,       9.6260649    ,       1.0250944    ,       9.6260649    
 Construction CTF,GBXML WOODEN - AIMO842_REV,  12,   1,   4,   0.500,      3.989    ,   0.900,   0.900,   0.700,   0.700,Rough
 Material CTF Summary,GBXML 1 1/2 IN WOOD - AIMO845_.O376,  0.0376,         0.150,    608.000,     1630.000,  0.2507    
 CTF,   4,      0.13030429E-08,      0.10299812E-08,      0.13030429E-08,     -0.44428507E-15
 CTF,   3,     -0.32012604E-03,      0.22062426E-03,     -0.32012604E-03,      0.21196130E-07
 CTF,   2,      0.32689886    ,      0.16407328    ,      0.32689886    ,     -0.78774264E-03
 CTF,   1,      -6.7000521    ,       2.0632032    ,      -6.7000521    ,      0.18547145    
 CTF,   0,       9.6260649    ,       1.0250944    ,       9.6260649    
! <WindowConstruction>,Construction Name,Index,#Layers,Roughness,Conductance {W/m2-K},SHGC,Solar Transmittance at Normal Incidence,Visible Transmittance at Normal Incidence
! <WindowMaterial:Glazing>, Material Name, Optical Data Type, Spectral Data Set Name, Thickness {m}, Solar Transmittance,Front Solar Reflectance, Back Solar Reflectance, Visible Transmittance, Front Visible Reflectance,Back Visible Reflectance,Infrared Transmittance, Front Thermal Emissivity, Back Thermal Emissivity,Conductivity {W/m-K},Dirt Factor,Solar Diffusing
! <WindowMaterial:Gas>,Material Name,GasType,Thickness {m}
 WindowConstruction,1001,13,1,VerySmooth,2.860,0.762,0.699,0.812
 WindowMaterial:Glazing,SIMPLE 1001,SpectralAverage,,1.93356E-002,0.69719,0.13971,0.13971,0.81000,0.14977,0.14914,0.00000,0.84000,0.84000,0.10779,1.00000,No
 WindowConstruction,1002,14,5,VerySmooth,2.178,0.682,0.595,0.738
 WindowMaterial:Glazing,2,SpectralAverage,,3.00000E-003,0.83700,7.50000E-002,7.50000E-002,0.89800,8.10000E-002,8.10000E-002,0.00000,0.84000,0.84000,0.90000,1.00000,No
 WindowMaterial:Gas,1001,Air,6.000E-003
 WindowMaterial:Glazing,2,SpectralAverage,,3.00000E-003,0.83700,7.50000E-002,7.50000E-002,0.89800,8.10000E-002,8.10000E-002,0.00000,0.84000,0.84000,0.90000,1.00000,No
 WindowMaterial:Gas,1001,Air,6.000E-003
 WindowMaterial:Glazing,2,SpectralAverage,,3.00000E-003,0.83700,7.50000E-002,7.50000E-002,0.89800,8.10000E-002,8.10000E-002,0.00000,0.84000,0.84000,0.90000,1.00000,No
 WindowConstruction,1003,15,3,VerySmooth,1.960,0.691,0.624,0.744
 WindowMaterial:Glazing,38,SpectralAverage,,3.00000E-003,0.74000,9.00000E-002,0.10000,0.82000,0.11000,0.12000,0.00000,0.84000,0.20000,0.90000,1.00000,No
 WindowMaterial:Gas,1002,Air,1.300E-002
 WindowMaterial:Glazing,2,SpectralAverage,,3.00000E-003,0.83700,7.50000E-002,7.50000E-002,0.89800,8.10000E-002,8.10000E-002,0.00000,0.84000,0.84000,0.90000,1.00000,No
! <Shadowing/Sun Position Calculations Annual Simulations>, Shading Calculation Method, Shading Calculation Update Frequency Method, Shading Calculation Update Frequency {days}, Maximum Figures in Shadow Overlap Calculations {}, Polygon Clipping Algorithm, Pixel Counting Resolution, Sky Diffuse Modeling Algorithm, Output External Shading Calculation Results, Disable Self-Shading Within Shading Zone Groups, Disable Self-Shading From Shading Zone Groups to Other Zones
Shadowing/Sun Position Calculations Annual Simulations,PolygonClipping,Periodic,20,15000,SutherlandHodgman,512,SimpleSkyDiffuseModeling,No,No,No
! <Surface View Factor Check Values>,Zone/Enclosure Name,Original Check Value,Calculated Fixed Check Value,Final Check Value,Number of Iterations,Fixed RowSum Convergence,Used RowSum Convergence
Surface View Factor Check Values,BLOCK1:ZONE1,1.776357E-015,6.226699E-004,6.226699E-004,11,6.226699E-004,6.226699E-004
Surface View Factor Check Values,BLOCK1:ZONE3,1.776357E-015,7.405298E-004,7.405298E-004,6,7.405298E-004,7.405298E-004
Surface View Factor Check Values,BLOCK1:ZONE5,0.000000,8.720242E-004,8.720242E-004,9,8.720242E-004,8.720242E-004
Surface View Factor Check Values,BLOCK1:ZONE2,5.329071E-015,6.995675E-004,6.995675E-004,9,6.995675E-004,6.995675E-004
Surface View Factor Check Values,BLOCK1:ZONE4,7.105427E-015,9.949728E-004,9.949728E-004,10,9.949728E-004,9.949728E-004
! <Surface Convection Parameters>, Surface Name, Outside Model Assignment, Outside Area [m2], Outside Perimeter [m], Outside Height [m], Inside Model Assignment, Inside Height [m], Inside Perimeter Envelope [m], Inside Hydraulic Diameter [m], Window Wall Ratio, Window Location, Near Radiant {Yes/No}, Has Active HVAC {Yes/No}
Surface Convection Parameters,BLOCK1:ZONE1_PARTITION_2_0_0,0,0.00,0.00,0.00,0,2.70,8.25,3.80,3.23E-002,0,No,No
Surface Convection Parameters,BLOCK1:ZONE1_WALL_3_0_0,0,22.38,24.17,2.70,0,2.70,8.25,3.80,3.23E-002,3,No,No
Surface Convection Parameters,BLOCK1:ZONE1_WALL_3_0_0_0_0_0_WIN,0,22.38,24.17,2.70,0,2.70,8.25,3.80,3.23E-002,2,No,No
Surface Convection Parameters,BLOCK1:ZONE1_WALL_4_0_0,0,18.63,27.09,2.70,0,2.70,8.25,3.80,3.23E-002,3,No,No
Surface Convection Parameters,BLOCK1:ZONE1_PARTITION_5_0_0,0,0.00,0.00,0.00,0,2.70,8.25,3.80,3.23E-002,0,No,No
Surface Convection Parameters,BLOCK1:ZONE1_PARTITION_5_0_0_0_0_0_WIN,0,0.00,0.00,0.00,0,2.70,8.25,3.80,3.23E-002,0,No,No
Surface Convection Parameters,BLOCK1:ZONE1_PARTITION_6_0_0,0,0.00,0.00,0.00,0,2.70,8.25,3.80,3.23E-002,0,No,No
Surface Convection Parameters,BLOCK1:ZONE1_PARTITION_6_0_0_0_0_0_WIN,0,0.00,0.00,0.00,0,2.70,8.25,3.80,3.23E-002,0,No,No
Surface Convection Parameters,BLOCK1:ZONE1_GROUNDFLOOR_0_0_0,0,0.00,0.00,0.00,0,2.70,8.25,3.80,3.23E-002,0,No,No
Surface Convection Parameters,BLOCK1:ZONE1_ROOF_1_0_0,0,52.51,29.37,0.00,0,2.70,8.25,3.80,3.23E-002,0,No,No
Surface Convection Parameters,BLOCK1:ZONE3_PARTITION_4_0_10000,0,0.00,0.00,0.00,0,2.70,3.94,1.56,6.77E-002,0,No,No
Surface Convection Parameters,BLOCK1:ZONE3_WALL_2_0_0,0,10.26,14.17,2.70,0,2.70,3.94,1.56,6.77E-002,4,No,No
Surface Convection Parameters,BLOCK1:ZONE3_WALL_3_0_0,0,22.38,24.17,2.70,0,2.70,3.94,1.56,6.77E-002,3,No,No
Surface Convection Parameters,BLOCK1:ZONE3_WALL_3_0_0_0_0_0_WIN,0,22.38,24.17,2.70,0,2.70,3.94,1.56,6.77E-002,2,No,No
Surface Convection Parameters,BLOCK1:ZONE3_PARTITION_5_0_0,0,0.00,0.00,0.00,0,2.70,3.94,1.56,6.77E-002,0,No,No
Surface Convection Parameters,BLOCK1:ZONE3_PARTITION_5_0_0_0_0_0_DOOR,0,0.00,0.00,0.00,0,2.70,3.94,1.56,6.77E-002,0,No,No
Surface Convection Parameters,BLOCK1:ZONE3_PARTITION_6_0_0,0,0.00,0.00,0.00,0,2.70,3.94,1.56,6.77E-002,0,No,No
Surface Convection Parameters,BLOCK1:ZONE3_PARTITION_7_0_0,0,0.00,0.00,0.00,0,2.70,3.94,1.56,6.77E-002,0,No,No
Surface Convection Parameters,BLOCK1:ZONE3_GROUNDFLOOR_0_0_0,0,0.00,0.00,0.00,0,2.70,3.94,1.56,6.77E-002,0,No,No
Surface Convection Parameters,BLOCK1:ZONE3_GROUNDFLOOR_0_0_1,0,0.00,0.00,0.00,0,2.70,3.94,1.56,6.77E-002,0,No,No
Surface Convection Parameters,BLOCK1:ZONE3_ROOF_1_0_0,0,52.51,29.37,0.00,0,2.70,3.94,1.56,6.77E-002,0,No,No
Surface Convection Parameters,BLOCK1:ZONE3_ROOF_1_0_1,0,52.51,29.37,0.00,0,2.70,3.94,1.56,6.77E-002,0,No,No
Surface Convection Parameters,BLOCK1:ZONE5_PARTITION_6_0_10003,0,0.00,0.00,0.00,0,2.70,6.72,3.31,0.19,0,No,No
Surface Convection Parameters,BLOCK1:ZONE5_PARTITION_6_0_0_0_0_0_WIN_10005,0,0.00,0.00,0.00,0,2.70,6.72,3.31,0.19,0,No,No
Surface Convection Parameters,BLOCK1:ZONE5_PARTITION_5_0_10005,0,0.00,0.00,0.00,0,2.70,6.72,3.31,0.19,0,No,No
Surface Convection Parameters,BLOCK1:ZONE5_PARTITION_5_0_0_0_0_0_DOOR_10007,0,0.00,0.00,0.00,0,2.70,6.72,3.31,0.19,0,No,No
Surface Convection Parameters,BLOCK1:ZONE5_WALL_2_0_0,0,10.26,14.17,2.70,0,2.70,6.72,3.31,0.19,4,No,No
Surface Convection Parameters,BLOCK1:ZONE5_WALL_2_0_0_0_0_0_DOOR,0,10.26,14.17,2.70,0,2.70,6.72,3.31,0.19,0,No,No
Surface Convection Parameters,BLOCK1:ZONE5_PARTITION_3_0_0,0,0.00,0.00,0.00,0,2.70,6.72,3.31,0.19,0,No,No
Surface Convection Parameters,BLOCK1:ZONE5_PARTITION_4_0_0,0,0.00,0.00,0.00,0,2.70,6.72,3.31,0.19,0,No,No
Surface Convection Parameters,BLOCK1:ZONE5_PARTITION_4_0_0_0_0_0_DOOR,0,0.00,0.00,0.00,0,2.70,6.72,3.31,0.19,0,No,No
Surface Convection Parameters,BLOCK1:ZONE5_PARTITION_7_0_0,0,0.00,0.00,0.00,0,2.70,6.72,3.31,0.19,0,No,No
Surface Convection Parameters,BLOCK1:ZONE5_PARTITION_7_0_0_0_0_0_WIN,0,0.00,0.00,0.00,0,2.70,6.72,3.31,0.19,0,No,No
Surface Convection Parameters,BLOCK1:ZONE5_WALL_8_0_0,0,21.97,23.12,2.70,0,2.70,6.72,3.31,0.19,4,No,No
Surface Convection Parameters,BLOCK1:ZONE5_WALL_8_0_0_0_0_0_WIN,0,21.97,23.12,2.70,0,2.70,6.72,3.31,0.19,1,No,No
Surface Convection Parameters,BLOCK1:ZONE5_PARTITION_9_0_0,0,0.00,0.00,0.00,0,2.70,6.72,3.31,0.19,0,No,No
Surface Convection Parameters,BLOCK1:ZONE5_WALL_10_0_0,0,22.38,24.17,2.70,0,2.70,6.72,3.31,0.19,4,No,No
Surface Convection Parameters,BLOCK1:ZONE5_GROUNDFLOOR_0_0_0,0,0.00,0.00,0.00,0,2.70,6.72,3.31,0.19,0,No,No
Surface Convection Parameters,BLOCK1:ZONE5_GROUNDFLOOR_0_0_1,0,0.00,0.00,0.00,0,2.70,6.72,3.31,0.19,0,No,No
Surface Convection Parameters,BLOCK1:ZONE5_GROUNDFLOOR_0_0_2,0,0.00,0.00,0.00,0,2.70,6.72,3.31,0.19,0,No,No
Surface Convection Parameters,BLOCK1:ZONE5_ROOF_1_0_0,0,52.51,29.37,0.00,0,2.70,6.72,3.31,0.19,0,No,No
Surface Convection Parameters,BLOCK1:ZONE5_ROOF_1_0_1,0,52.51,29.37,0.00,0,2.70,6.72,3.31,0.19,0,No,No
Surface Convection Parameters,BLOCK1:ZONE5_ROOF_1_0_2,0,52.51,29.37,0.00,0,2.70,6.72,3.31,0.19,0,No,No
Surface Convection Parameters,BLOCK1:ZONE2_PARTITION_3_0_10001,0,0.00,0.00,0.00,0,2.70,7.55,3.36,0.17,0,No,No
Surface Convection Parameters,BLOCK1:ZONE2_PARTITION_3_0_0_0_0_0_WIN_10003,0,0.00,0.00,0.00,0,2.70,7.55,3.36,0.17,0,No,No
Surface Convection Parameters,BLOCK1:ZONE2_PARTITION_2_0_10012,0,0.00,0.00,0.00,0,2.70,7.55,3.36,0.17,0,No,No
Surface Convection Parameters,BLOCK1:ZONE2_PARTITION_2_0_0_0_0_0_WIN_10014,0,0.00,0.00,0.00,0,2.70,7.55,3.36,0.17,0,No,No
Surface Convection Parameters,BLOCK1:ZONE2_WALL_4_0_0,0,18.63,27.09,2.70,0,2.70,7.55,3.36,0.17,3,No,No
Surface Convection Parameters,BLOCK1:ZONE2_WALL_5_0_0,0,21.97,23.12,2.70,0,2.70,7.55,3.36,0.17,4,No,No
Surface Convection Parameters,BLOCK1:ZONE2_WALL_5_0_0_0_0_0_WIN,0,21.97,23.12,2.70,0,2.70,7.55,3.36,0.17,1,No,No
Surface Convection Parameters,BLOCK1:ZONE2_GROUNDFLOOR_0_0_0,0,0.00,0.00,0.00,0,2.70,7.55,3.36,0.17,0,No,No
Surface Convection Parameters,BLOCK1:ZONE2_ROOF_1_0_0,0,52.51,29.37,0.00,0,2.70,7.55,3.36,0.17,0,No,No
Surface Convection Parameters,BLOCK1:ZONE4_PARTITION_4_0_10007,0,0.00,0.00,0.00,0,2.70,1.08,1.02,0.00,0,No,No
Surface Convection Parameters,BLOCK1:ZONE4_PARTITION_3_0_10008,0,0.00,0.00,0.00,0,2.70,1.08,1.02,0.00,0,No,No
Surface Convection Parameters,BLOCK1:ZONE4_PARTITION_6_0_10009,0,0.00,0.00,0.00,0,2.70,1.08,1.02,0.00,0,No,No
Surface Convection Parameters,BLOCK1:ZONE4_PARTITION_5_0_10010,0,0.00,0.00,0.00,0,2.70,1.08,1.02,0.00,0,No,No
Surface Convection Parameters,BLOCK1:ZONE4_PARTITION_5_0_0_0_0_0_DOOR_10012,0,0.00,0.00,0.00,0,2.70,1.08,1.02,0.00,0,No,No
Surface Convection Parameters,BLOCK1:ZONE4_WALL_2_0_0,0,10.26,14.17,2.70,0,2.70,1.08,1.02,0.00,0,No,No
Surface Convection Parameters,BLOCK1:ZONE4_GROUNDFLOOR_0_0_0,0,0.00,0.00,0.00,0,2.70,1.08,1.02,0.00,0,No,No
Surface Convection Parameters,BLOCK1:ZONE4_ROOF_1_0_0,0,52.51,29.37,0.00,0,2.70,1.08,1.02,0.00,0,No,No
! <Building Convection Parameters:North Facade>, Perimeter, Height, Xmin, Xmax, Ymin, Ymax, Zmin, Zmax 
Building Convection Parameters:North Facade, 24.17,2.70,-8.37,5.00E-002,0.00,4.15,0.00,2.70
! <Building Convection Parameters:Northeast Facade>, Perimeter, Height, Xmin, Xmax, Ymin, Ymax, Zmin, Zmax 
Building Convection Parameters:Northeast Facade, 0.00,0.00,0.00,0.00,0.00,0.00,0.00,0.00
! <Building Convection Parameters:East Facade>, Perimeter, Height, Xmin, Xmax, Ymin, Ymax, Zmin, Zmax 
Building Convection Parameters:East Facade, 14.17,2.70,-1.42,0.00,0.00,4.15,0.00,2.70
! <Building Convection Parameters:Southeast Facade>, Perimeter, Height, Xmin, Xmax, Ymin, Ymax, Zmin, Zmax 
Building Convection Parameters:Southeast Facade, 0.00,0.00,0.00,0.00,0.00,0.00,0.00,0.00
! <Building Convection Parameters:South Facade>, Perimeter, Height, Xmin, Xmax, Ymin, Ymax, Zmin, Zmax 
Building Convection Parameters:South Facade, 23.12,2.70,-8.37,5.00E-002,-2.75,0.00,0.00,2.70
! <Building Convection Parameters:Southwest Facade>, Perimeter, Height, Xmin, Xmax, Ymin, Ymax, Zmin, Zmax 
Building Convection Parameters:Southwest Facade, 0.00,0.00,0.00,0.00,0.00,0.00,0.00,0.00
! <Building Convection Parameters:West Facade>, Perimeter, Height, Xmin, Xmax, Ymin, Ymax, Zmin, Zmax 
Building Convection Parameters:West Facade, 27.09,2.70,-8.37,0.00,-2.75,4.15,0.00,2.70
! <Building Convection Parameters:Northwest Facade>, Perimeter, Height, Xmin, Xmax, Ymin, Ymax, Zmin, Zmax 
Building Convection Parameters:NorthwWest Facade, 0.00,0.00,0.00,0.00,0.00,0.00,0.00,0.00
! <Building Convection Parameters:Roof>, Area [m2], Perimeter [m], Height [m], XdYdZd:X, XdYdZd:Y, XdYdZd:Z,XdYdZu:X, XdYdZu:Y, XdYdZu:Z,XdYuZd:X, XdYuZd:Y, XdYuZd:Z,XdYuZu:X, XdYuZu:Y, XdYuZu:Z,XuYdZd:X, XuYdZd:Y, XuYdZd:Z,XuYuZd:X, XuYuZd:Y, XuYuZd:Z,XuYdZu:X, XuYdZu:Y, XuYdZu:Z,XuYuZu:X, XuYuZu:Y, XuYuZu:Z
Building Convection Parameters:Roof,52.51,29.37,0.00,-8.370,-2.750,2.700,-8.370,-2.750,2.700,-8.370,4.150,2.700,-8.370,4.150,2.700,5.000E-002,-2.750,2.700,-1.420,4.150,2.700,5.000E-002,-2.750,2.700,-1.420,4.150,2.700
! <RoomAir Model>, Zone Name, Mixing/Mundt/UCSDDV/UCSDCV/UCSDUFI/UCSDUFE/User Defined
RoomAir Model,BLOCK1:ZONE1,Mixing/Well-Stirred
RoomAir Model,BLOCK1:ZONE3,Mixing/Well-Stirred
RoomAir Model,BLOCK1:ZONE5,Mixing/Well-Stirred
RoomAir Model,BLOCK1:ZONE2,Mixing/Well-Stirred
RoomAir Model,BLOCK1:ZONE4,Mixing/Well-Stirred
! <AirflowNetwork Model:Control>, No Multizone or Distribution/Multizone with Distribution/Multizone without Distribution/Multizone with Distribution only during Fan Operation
AirflowNetwork Model:Control,MultizoneWithoutDistribution
! <AirflowNetwork Model:Wind Direction>, Wind Direction #1 to n (degree)
AirflowNetwork Model:Wind Direction, 0.0,30.0,60.0,90.0,120.0,150.0,180.0,210.0,240.0,270.0,300.0,330.0
! <AirflowNetwork Model:Wind Pressure Coefficients>, Name, Wind Pressure Coefficients #1 to n (dimensionless)
AirflowNetwork Model:Wind Pressure Coefficients, BLOCK1:ZONE1_ROOF_1_0_0, -0.60,-0.53,-0.47,-0.40,-0.47,-0.53,-0.60,-0.53,-0.47,-0.40,-0.47,-0.53
AirflowNetwork Model:Wind Pressure Coefficients, BLOCK1:ZONE1_WALL_3_0_0, 0.40,0.20,-3.33E-002,-0.30,-0.33,-0.30,-0.20,-0.30,-0.33,-0.30,-3.33E-002,0.20
AirflowNetwork Model:Wind Pressure Coefficients, BLOCK1:ZONE1_WALL_3_0_0_0_0_0_WIN, 0.40,0.20,-3.33E-002,-0.30,-0.33,-0.30,-0.20,-0.30,-0.33,-0.30,-3.33E-002,0.20
AirflowNetwork Model:Wind Pressure Coefficients, BLOCK1:ZONE1_WALL_4_0_0, -0.30,-0.33,-0.30,-0.20,-0.30,-0.33,-0.30,-3.33E-002,0.20,0.40,0.20,-3.33E-002
AirflowNetwork Model:Wind Pressure Coefficients, BLOCK1:ZONE3_ROOF_1_0_0, -0.60,-0.53,-0.47,-0.40,-0.47,-0.53,-0.60,-0.53,-0.47,-0.40,-0.47,-0.53
AirflowNetwork Model:Wind Pressure Coefficients, BLOCK1:ZONE3_ROOF_1_0_1, -0.60,-0.53,-0.47,-0.40,-0.47,-0.53,-0.60,-0.53,-0.47,-0.40,-0.47,-0.53
AirflowNetwork Model:Wind Pressure Coefficients, BLOCK1:ZONE3_WALL_2_0_0, -0.30,-3.33E-002,0.20,0.40,0.20,-3.33E-002,-0.30,-0.33,-0.30,-0.20,-0.30,-0.33
AirflowNetwork Model:Wind Pressure Coefficients, BLOCK1:ZONE3_WALL_3_0_0, 0.40,0.20,-3.33E-002,-0.30,-0.33,-0.30,-0.20,-0.30,-0.33,-0.30,-3.33E-002,0.20
AirflowNetwork Model:Wind Pressure Coefficients, BLOCK1:ZONE3_WALL_3_0_0_0_0_0_WIN, 0.40,0.20,-3.33E-002,-0.30,-0.33,-0.30,-0.20,-0.30,-0.33,-0.30,-3.33E-002,0.20
AirflowNetwork Model:Wind Pressure Coefficients, BLOCK1:ZONE5_ROOF_1_0_0, -0.60,-0.53,-0.47,-0.40,-0.47,-0.53,-0.60,-0.53,-0.47,-0.40,-0.47,-0.53
AirflowNetwork Model:Wind Pressure Coefficients, BLOCK1:ZONE5_ROOF_1_0_1, -0.60,-0.53,-0.47,-0.40,-0.47,-0.53,-0.60,-0.53,-0.47,-0.40,-0.47,-0.53
AirflowNetwork Model:Wind Pressure Coefficients, BLOCK1:ZONE5_ROOF_1_0_2, -0.60,-0.53,-0.47,-0.40,-0.47,-0.53,-0.60,-0.53,-0.47,-0.40,-0.47,-0.53
AirflowNetwork Model:Wind Pressure Coefficients, BLOCK1:ZONE5_WALL_2_0_0, -0.30,-3.33E-002,0.20,0.40,0.20,-3.33E-002,-0.30,-0.33,-0.30,-0.20,-0.30,-0.33
AirflowNetwork Model:Wind Pressure Coefficients, BLOCK1:ZONE5_WALL_2_0_0_0_0_0_DOOR, -0.30,-3.33E-002,0.20,0.40,0.20,-3.33E-002,-0.30,-0.33,-0.30,-0.20,-0.30,-0.33
AirflowNetwork Model:Wind Pressure Coefficients, BLOCK1:ZONE5_WALL_8_0_0, -0.20,-0.30,-0.33,-0.30,-3.33E-002,0.20,0.40,0.20,-3.33E-002,-0.30,-0.33,-0.30
AirflowNetwork Model:Wind Pressure Coefficients, BLOCK1:ZONE5_WALL_8_0_0_0_0_0_WIN, -0.20,-0.30,-0.33,-0.30,-3.33E-002,0.20,0.40,0.20,-3.33E-002,-0.30,-0.33,-0.30
AirflowNetwork Model:Wind Pressure Coefficients, BLOCK1:ZONE5_WALL_10_0_0, 0.40,0.20,-3.33E-002,-0.30,-0.33,-0.30,-0.20,-0.30,-0.33,-0.30,-3.33E-002,0.20
AirflowNetwork Model:Wind Pressure Coefficients, BLOCK1:ZONE2_ROOF_1_0_0, -0.60,-0.53,-0.47,-0.40,-0.47,-0.53,-0.60,-0.53,-0.47,-0.40,-0.47,-0.53
AirflowNetwork Model:Wind Pressure Coefficients, BLOCK1:ZONE2_WALL_4_0_0, -0.30,-0.33,-0.30,-0.20,-0.30,-0.33,-0.30,-3.33E-002,0.20,0.40,0.20,-3.33E-002
AirflowNetwork Model:Wind Pressure Coefficients, BLOCK1:ZONE2_WALL_5_0_0, -0.20,-0.30,-0.33,-0.30,-3.33E-002,0.20,0.40,0.20,-3.33E-002,-0.30,-0.33,-0.30
AirflowNetwork Model:Wind Pressure Coefficients, BLOCK1:ZONE2_WALL_5_0_0_0_0_0_WIN, -0.20,-0.30,-0.33,-0.30,-3.33E-002,0.20,0.40,0.20,-3.33E-002,-0.30,-0.33,-0.30
AirflowNetwork Model:Wind Pressure Coefficients, BLOCK1:ZONE4_ROOF_1_0_0, -0.60,-0.53,-0.47,-0.40,-0.47,-0.53,-0.60,-0.53,-0.47,-0.40,-0.47,-0.53
AirflowNetwork Model:Wind Pressure Coefficients, BLOCK1:ZONE4_WALL_2_0_0, -0.30,-3.33E-002,0.20,0.40,0.20,-3.33E-002,-0.30,-0.33,-0.30,-0.20,-0.30,-0.33
! <Zone Volume Capacitance Multiplier>, Sensible Heat Capacity Multiplier, Moisture Capacity Multiplier, Carbon Dioxide Capacity Multiplier, Generic Contaminant Capacity Multiplier
Zone Volume Capacitance Multiplier,   1.000 ,   1.000,   1.000,   1.000
! <Zone Sizing DOAS Inputs>, Zone Name, DOAS Design Control Strategy, DOAS Design Low Setpoint Temperature {C}, DOAS Design High Setpoint Temperature {C} 
 Zone Sizing DOAS Inputs, BLOCK1:ZONE1, NeutralSupplyAir, 21.100, 23.900
 Zone Sizing DOAS Inputs, BLOCK1:ZONE3, NeutralSupplyAir, 21.100, 23.900
 Zone Sizing DOAS Inputs, BLOCK1:ZONE5, NeutralSupplyAir, 21.100, 23.900
 Zone Sizing DOAS Inputs, BLOCK1:ZONE2, NeutralSupplyAir, 21.100, 23.900
 Zone Sizing DOAS Inputs, BLOCK1:ZONE4, NeutralSupplyAir, 21.100, 23.900
! <Load Timesteps in Zone Design Calculation Averaging Window>, Value
 Load Timesteps in Zone Design Calculation Averaging Window,    2
! <Heating Sizing Factor Information>, Sizing Factor ID, Value
 Heating Sizing Factor Information, Global,   1.2500    
 Heating Sizing Factor Information, Zone BLOCK1:ZONE1,   1.2500    
 Heating Sizing Factor Information, Zone BLOCK1:ZONE3,   1.2500    
 Heating Sizing Factor Information, Zone BLOCK1:ZONE5,   1.2500    
 Heating Sizing Factor Information, Zone BLOCK1:ZONE2,   1.2500    
 Heating Sizing Factor Information, Zone BLOCK1:ZONE4,   1.2500    
! <Cooling Sizing Factor Information>, Sizing Factor ID, Value
 Cooling Sizing Factor Information, Global,   1.1500    
 Cooling Sizing Factor Information, Zone BLOCK1:ZONE1,   1.1500    
 Cooling Sizing Factor Information, Zone BLOCK1:ZONE3,   1.1500    
 Cooling Sizing Factor Information, Zone BLOCK1:ZONE5,   1.1500    
 Cooling Sizing Factor Information, Zone BLOCK1:ZONE2,   1.1500    
 Cooling Sizing Factor Information, Zone BLOCK1:ZONE4,   1.1500    
! <Zone Sizing Information>, Zone Name, Load Type, Calc Des Load {W}, User Des Load {W}, Calc Des Air Flow Rate {m3/s}, User Des Air Flow Rate {m3/s}, Design Day Name, Date/Time of Peak, Temperature at Peak {C}, Humidity Ratio at Peak {kgWater/kgDryAir}, Floor Area {m2}, # Occupants, Calc Outdoor Air Flow Rate {m3/s}, Calc DOAS Heat Addition Rate {W}
 Zone Sizing Information, BLOCK1:ZONE1, Cooling, 465.59924, 535.43912, 2.72268E-002, 3.13108E-002, SUMMER DESIGN DAY IN UNTITLED (O1-O1:31-12) JUL, 7/15 20:00:00, 29.45000, 8.69952E-003, 15.69500, 0.50730, 4.78891E-003, -19.55735
 Zone Sizing Information, BLOCK1:ZONE1, Heating, 1939.59841, 2424.49802, 4.98752E-002, 6.23440E-002, WINTER DESIGN DAY IN UNTITLED (O1-O1:31-12), 1/15 24:00:00, -4.00000, 2.89197E-003, 15.69500, 0.50730, 4.78891E-003, 14.51351
 Zone Sizing Information, BLOCK1:ZONE3, Cooling, 151.86947, 174.64989, 8.88076E-003, 1.02129E-002, SUMMER DESIGN DAY IN UNTITLED (O1-O1:31-12) JUL, 7/15 18:30:00, 32.68750, 8.70478E-003, 3.34430, 0.11840, 1.11773E-003, -4.56490
 Zone Sizing Information, BLOCK1:ZONE3, Heating, 822.86628, 1028.58285, 2.11593E-002, 2.64492E-002, WINTER DESIGN DAY IN UNTITLED (O1-O1:31-12), 1/15 24:00:00, -4.00000, 2.89197E-003, 3.34430, 0.11840, 1.11773E-003, 3.38746
 Zone Sizing Information, BLOCK1:ZONE5, Cooling, 3894.11332, 4478.23032, 0.22771, 0.26187, SUMMER DESIGN DAY IN UNTITLED (O1-O1:31-12) JUL, 7/15 15:00:00, 38.20000, 8.71384E-003, 15.02930, 0.48785, 4.60534E-003, -18.80890
 Zone Sizing Information, BLOCK1:ZONE5, Heating, 15013.46869, 18766.83586, 0.38606, 0.48257, WINTER DESIGN DAY IN UNTITLED (O1-O1:31-12), 1/15 24:00:00, -4.00000, 2.89197E-003, 15.02930, 0.48785, 4.60534E-003, 13.95717
 Zone Sizing Information, BLOCK1:ZONE2, Cooling, 364.29938, 418.94429, 2.13030E-002, 2.44985E-002, SUMMER DESIGN DAY IN UNTITLED (O1-O1:31-12) JUL, 7/15 19:30:00, 30.41250, 8.70107E-003, 12.68500, 0.41385, 3.90674E-003, -15.95486
 Zone Sizing Information, BLOCK1:ZONE2, Heating, 1526.29193, 1907.86491, 3.92473E-002, 4.90592E-002, WINTER DESIGN DAY IN UNTITLED (O1-O1:31-12), 1/15 24:00:00, -4.00000, 2.89197E-003, 12.68500, 0.41385, 3.90674E-003, 11.83997
 Zone Sizing Information, BLOCK1:ZONE4, Cooling, 42.17251, 48.49839, 2.46609E-003, 2.83600E-003, SUMMER DESIGN DAY IN UNTITLED (O1-O1:31-12) JUL, 7/15 19:00:00, 31.37500, 8.70264E-003, 1.30340, 4.79520E-002, 4.52667E-004, -1.84872
 Zone Sizing Information, BLOCK1:ZONE4, Heating, 250.60853, 313.26067, 6.44419E-003, 8.05524E-003, WINTER DESIGN DAY IN UNTITLED (O1-O1:31-12), 1/15 24:00:00, -4.00000, 2.89197E-003, 1.30340, 4.79520E-002, 4.52667E-004, 1.37187
! <Component Sizing Information>, Component Type, Component Name, Input Field Description, Value
 Component Sizing Information, ZoneHVAC:TerminalUnit:VariableRefrigerantFlow, BLOCK1:ZONE1 VRF INDOOR UNIT, Design Size Cooling Supply Air Flow Rate [m3/s], 6.23440E-002
 Component Sizing Information, ZoneHVAC:TerminalUnit:VariableRefrigerantFlow, BLOCK1:ZONE1 VRF INDOOR UNIT, Design Size Heating Supply Air Flow Rate [m3/s], 6.23440E-002
 Component Sizing Information, ZoneHVAC:TerminalUnit:VariableRefrigerantFlow, BLOCK1:ZONE1 VRF INDOOR UNIT, Design Size No Cooling Supply Air Flow Rate [m3/s], 6.23440E-002
 Component Sizing Information, ZoneHVAC:TerminalUnit:VariableRefrigerantFlow, BLOCK1:ZONE1 VRF INDOOR UNIT, Design Size No Heating Supply Air Flow Rate [m3/s], 6.23440E-002
 Component Sizing Information, Coil:Cooling:DX:VariableRefrigerantFlow, BLOCK1:ZONE1 VRF INDOOR UNIT DX COOLING COIL, Design Size Rated Air Flow Rate [m3/s], 6.23440E-002
 Component Sizing Information, Coil:Cooling:DX:VariableRefrigerantFlow, BLOCK1:ZONE1 VRF INDOOR UNIT DX COOLING COIL, Design Size Gross Rated Total Cooling Capacity [W], 1080.54468
 Component Sizing Information, Coil:Cooling:DX:VariableRefrigerantFlow, BLOCK1:ZONE1 VRF INDOOR UNIT DX COOLING COIL, Design Size Gross Rated Sensible Heat Ratio, 0.80014
 Component Sizing Information, Coil:Heating:DX:VariableRefrigerantFlow, BLOCK1:ZONE1 VRF INDOOR UNIT DX HEATING COIL, Design Size Rated Air Flow Rate [m3/s], 6.23440E-002
 Component Sizing Information, Coil:Heating:DX:VariableRefrigerantFlow, BLOCK1:ZONE1 VRF INDOOR UNIT DX HEATING COIL, Design Size Gross Rated Heating Capacity [W], 1080.54468
 Component Sizing Information, Fan:ConstantVolume, BLOCK1:ZONE1 VRF INDOOR UNIT SUPPLY FAN, Design Size Maximum Flow Rate [m3/s], 6.23440E-002
 Component Sizing Information, AirConditioner:VariableRefrigerantFlow, VRF OUTDOOR UNIT_BLOCK1:ZONE1, Design Size Rated Total Cooling Capacity (gross) [W], 1080.54468
 Component Sizing Information, AirConditioner:VariableRefrigerantFlow, VRF OUTDOOR UNIT_BLOCK1:ZONE1, Design Size Rated Total Heating Capacity [W], 1080.54468
 Component Sizing Information, AirConditioner:VariableRefrigerantFlow, VRF OUTDOOR UNIT_BLOCK1:ZONE1, Design Size Resistive Defrost Heater Capacity, 1080.54468
 Component Sizing Information, AirConditioner:VariableRefrigerantFlow, VRF OUTDOOR UNIT_BLOCK1:ZONE1, Design Size Evaporative Condenser Air Flow Rate [m3/s], 0.12318
 Component Sizing Information, AirConditioner:VariableRefrigerantFlow, VRF OUTDOOR UNIT_BLOCK1:ZONE1, Design Size Evaporative Condenser Pump Rated Power Consumption [W], 4.60960
! <VRF System Information>, VRF System Type, VRF System Name, VRF System Cooling Combination Ratio, VRF System Heating Combination Ratio, VRF System Cooling Piping Correction Factor, VRF System Heating Piping Correction Factor
 VRF System Information, AirConditioner:VariableRefrigerantFlow, VRF OUTDOOR UNIT_BLOCK1:ZONE1, 1.00000, 1.00000, 0.91519, 0.99797
 Component Sizing Information, ZoneHVAC:TerminalUnit:VariableRefrigerantFlow, BLOCK1:ZONE3 VRF INDOOR UNIT, Design Size Cooling Supply Air Flow Rate [m3/s], 2.64492E-002
 Component Sizing Information, ZoneHVAC:TerminalUnit:VariableRefrigerantFlow, BLOCK1:ZONE3 VRF INDOOR UNIT, Design Size Heating Supply Air Flow Rate [m3/s], 2.64492E-002
 Component Sizing Information, ZoneHVAC:TerminalUnit:VariableRefrigerantFlow, BLOCK1:ZONE3 VRF INDOOR UNIT, Design Size No Cooling Supply Air Flow Rate [m3/s], 2.64492E-002
 Component Sizing Information, ZoneHVAC:TerminalUnit:VariableRefrigerantFlow, BLOCK1:ZONE3 VRF INDOOR UNIT, Design Size No Heating Supply Air Flow Rate [m3/s], 2.64492E-002
 Component Sizing Information, Coil:Cooling:DX:VariableRefrigerantFlow, BLOCK1:ZONE3 VRF INDOOR UNIT DX COOLING COIL, Design Size Rated Air Flow Rate [m3/s], 2.64492E-002
 Component Sizing Information, Coil:Cooling:DX:VariableRefrigerantFlow, BLOCK1:ZONE3 VRF INDOOR UNIT DX COOLING COIL, Design Size Gross Rated Total Cooling Capacity [W], 437.82754
 Component Sizing Information, Coil:Cooling:DX:VariableRefrigerantFlow, BLOCK1:ZONE3 VRF INDOOR UNIT DX COOLING COIL, Design Size Gross Rated Sensible Heat Ratio, 0.80066
 Component Sizing Information, Coil:Heating:DX:VariableRefrigerantFlow, BLOCK1:ZONE3 VRF INDOOR UNIT DX HEATING COIL, Design Size Rated Air Flow Rate [m3/s], 2.64492E-002
 Component Sizing Information, Coil:Heating:DX:VariableRefrigerantFlow, BLOCK1:ZONE3 VRF INDOOR UNIT DX HEATING COIL, Design Size Gross Rated Heating Capacity [W], 437.82754
 Component Sizing Information, Fan:ConstantVolume, BLOCK1:ZONE3 VRF INDOOR UNIT SUPPLY FAN, Design Size Maximum Flow Rate [m3/s], 2.64492E-002
 Component Sizing Information, AirConditioner:VariableRefrigerantFlow, VRF OUTDOOR UNIT_BLOCK1:ZONE3, Design Size Rated Total Cooling Capacity (gross) [W], 437.82754
 Component Sizing Information, AirConditioner:VariableRefrigerantFlow, VRF OUTDOOR UNIT_BLOCK1:ZONE3, Design Size Rated Total Heating Capacity [W], 437.82754
 Component Sizing Information, AirConditioner:VariableRefrigerantFlow, VRF OUTDOOR UNIT_BLOCK1:ZONE3, Design Size Resistive Defrost Heater Capacity, 437.82754
 Component Sizing Information, AirConditioner:VariableRefrigerantFlow, VRF OUTDOOR UNIT_BLOCK1:ZONE3, Design Size Evaporative Condenser Air Flow Rate [m3/s], 4.99123E-002
 Component Sizing Information, AirConditioner:VariableRefrigerantFlow, VRF OUTDOOR UNIT_BLOCK1:ZONE3, Design Size Evaporative Condenser Pump Rated Power Consumption [W], 1.86777
 VRF System Information, AirConditioner:VariableRefrigerantFlow, VRF OUTDOOR UNIT_BLOCK1:ZONE3, 1.00000, 1.00000, 0.91519, 0.99797
 Component Sizing Information, ZoneHVAC:TerminalUnit:VariableRefrigerantFlow, BLOCK1:ZONE5 VRF INDOOR UNIT, Design Size Cooling Supply Air Flow Rate [m3/s], 0.48257
 Component Sizing Information, ZoneHVAC:TerminalUnit:VariableRefrigerantFlow, BLOCK1:ZONE5 VRF INDOOR UNIT, Design Size Heating Supply Air Flow Rate [m3/s], 0.48257
 Component Sizing Information, ZoneHVAC:TerminalUnit:VariableRefrigerantFlow, BLOCK1:ZONE5 VRF INDOOR UNIT, Design Size No Cooling Supply Air Flow Rate [m3/s], 0.48257
 Component Sizing Information, ZoneHVAC:TerminalUnit:VariableRefrigerantFlow, BLOCK1:ZONE5 VRF INDOOR UNIT, Design Size No Heating Supply Air Flow Rate [m3/s], 0.48257
 Component Sizing Information, Coil:Cooling:DX:VariableRefrigerantFlow, BLOCK1:ZONE5 VRF INDOOR UNIT DX COOLING COIL, Design Size Rated Air Flow Rate [m3/s], 0.48257
 Component Sizing Information, Coil:Cooling:DX:VariableRefrigerantFlow, BLOCK1:ZONE5 VRF INDOOR UNIT DX COOLING COIL, Design Size Gross Rated Total Cooling Capacity [W], 7988.30885
 Component Sizing Information, Coil:Cooling:DX:VariableRefrigerantFlow, BLOCK1:ZONE5 VRF INDOOR UNIT DX COOLING COIL, Design Size Gross Rated Sensible Heat Ratio, 0.80066
 Component Sizing Information, Coil:Heating:DX:VariableRefrigerantFlow, BLOCK1:ZONE5 VRF INDOOR UNIT DX HEATING COIL, Design Size Rated Air Flow Rate [m3/s], 0.48257
 Component Sizing Information, Coil:Heating:DX:VariableRefrigerantFlow, BLOCK1:ZONE5 VRF INDOOR UNIT DX HEATING COIL, Design Size Gross Rated Heating Capacity [W], 7988.30885
 Component Sizing Information, Fan:ConstantVolume, BLOCK1:ZONE5 VRF INDOOR UNIT SUPPLY FAN, Design Size Maximum Flow Rate [m3/s], 0.48257
 Component Sizing Information, AirConditioner:VariableRefrigerantFlow, VRF OUTDOOR UNIT_BLOCK1:ZONE5, Design Size Rated Total Cooling Capacity (gross) [W], 7988.30885
 Component Sizing Information, AirConditioner:VariableRefrigerantFlow, VRF OUTDOOR UNIT_BLOCK1:ZONE5, Design Size Rated Total Heating Capacity [W], 7988.30885
 Component Sizing Information, AirConditioner:VariableRefrigerantFlow, VRF OUTDOOR UNIT_BLOCK1:ZONE5, Design Size Resistive Defrost Heater Capacity, 7988.30885
 Component Sizing Information, AirConditioner:VariableRefrigerantFlow, VRF OUTDOOR UNIT_BLOCK1:ZONE5, Design Size Evaporative Condenser Air Flow Rate [m3/s], 0.91067
 Component Sizing Information, AirConditioner:VariableRefrigerantFlow, VRF OUTDOOR UNIT_BLOCK1:ZONE5, Design Size Evaporative Condenser Pump Rated Power Consumption [W], 34.07813
 VRF System Information, AirConditioner:VariableRefrigerantFlow, VRF OUTDOOR UNIT_BLOCK1:ZONE5, 1.00000, 1.00000, 0.91519, 0.99797
 Component Sizing Information, ZoneHVAC:TerminalUnit:VariableRefrigerantFlow, BLOCK1:ZONE2 VRF INDOOR UNIT, Design Size Cooling Supply Air Flow Rate [m3/s], 4.90592E-002
 Component Sizing Information, ZoneHVAC:TerminalUnit:VariableRefrigerantFlow, BLOCK1:ZONE2 VRF INDOOR UNIT, Design Size Heating Supply Air Flow Rate [m3/s], 4.90592E-002
 Component Sizing Information, ZoneHVAC:TerminalUnit:VariableRefrigerantFlow, BLOCK1:ZONE2 VRF INDOOR UNIT, Design Size No Cooling Supply Air Flow Rate [m3/s], 4.90592E-002
 Component Sizing Information, ZoneHVAC:TerminalUnit:VariableRefrigerantFlow, BLOCK1:ZONE2 VRF INDOOR UNIT, Design Size No Heating Supply Air Flow Rate [m3/s], 4.90592E-002
 Component Sizing Information, Coil:Cooling:DX:VariableRefrigerantFlow, BLOCK1:ZONE2 VRF INDOOR UNIT DX COOLING COIL, Design Size Rated Air Flow Rate [m3/s], 4.90592E-002
 Component Sizing Information, Coil:Cooling:DX:VariableRefrigerantFlow, BLOCK1:ZONE2 VRF INDOOR UNIT DX COOLING COIL, Design Size Gross Rated Total Cooling Capacity [W], 828.15138
 Component Sizing Information, Coil:Cooling:DX:VariableRefrigerantFlow, BLOCK1:ZONE2 VRF INDOOR UNIT DX COOLING COIL, Design Size Gross Rated Sensible Heat Ratio, 0.80053
 Component Sizing Information, Coil:Heating:DX:VariableRefrigerantFlow, BLOCK1:ZONE2 VRF INDOOR UNIT DX HEATING COIL, Design Size Rated Air Flow Rate [m3/s], 4.90592E-002
 Component Sizing Information, Coil:Heating:DX:VariableRefrigerantFlow, BLOCK1:ZONE2 VRF INDOOR UNIT DX HEATING COIL, Design Size Gross Rated Heating Capacity [W], 828.15138
 Component Sizing Information, Fan:ConstantVolume, BLOCK1:ZONE2 VRF INDOOR UNIT SUPPLY FAN, Design Size Maximum Flow Rate [m3/s], 4.90592E-002
 Component Sizing Information, AirConditioner:VariableRefrigerantFlow, VRF OUTDOOR UNIT_BLOCK1:ZONE2, Design Size Rated Total Cooling Capacity (gross) [W], 828.15138
 Component Sizing Information, AirConditioner:VariableRefrigerantFlow, VRF OUTDOOR UNIT_BLOCK1:ZONE2, Design Size Rated Total Heating Capacity [W], 828.15138
 Component Sizing Information, AirConditioner:VariableRefrigerantFlow, VRF OUTDOOR UNIT_BLOCK1:ZONE2, Design Size Resistive Defrost Heater Capacity, 828.15138
 Component Sizing Information, AirConditioner:VariableRefrigerantFlow, VRF OUTDOOR UNIT_BLOCK1:ZONE2, Design Size Evaporative Condenser Air Flow Rate [m3/s], 9.44093E-002
 Component Sizing Information, AirConditioner:VariableRefrigerantFlow, VRF OUTDOOR UNIT_BLOCK1:ZONE2, Design Size Evaporative Condenser Pump Rated Power Consumption [W], 3.53289
 VRF System Information, AirConditioner:VariableRefrigerantFlow, VRF OUTDOOR UNIT_BLOCK1:ZONE2, 1.00000, 1.00000, 0.91519, 0.99797
 Component Sizing Information, ZoneHVAC:TerminalUnit:VariableRefrigerantFlow, BLOCK1:ZONE4 VRF INDOOR UNIT, Design Size Cooling Supply Air Flow Rate [m3/s], 8.05524E-003
 Component Sizing Information, ZoneHVAC:TerminalUnit:VariableRefrigerantFlow, BLOCK1:ZONE4 VRF INDOOR UNIT, Design Size Heating Supply Air Flow Rate [m3/s], 8.05524E-003
 Component Sizing Information, ZoneHVAC:TerminalUnit:VariableRefrigerantFlow, BLOCK1:ZONE4 VRF INDOOR UNIT, Design Size No Cooling Supply Air Flow Rate [m3/s], 8.05524E-003
 Component Sizing Information, ZoneHVAC:TerminalUnit:VariableRefrigerantFlow, BLOCK1:ZONE4 VRF INDOOR UNIT, Design Size No Heating Supply Air Flow Rate [m3/s], 8.05524E-003
 Component Sizing Information, Coil:Cooling:DX:VariableRefrigerantFlow, BLOCK1:ZONE4 VRF INDOOR UNIT DX COOLING COIL, Design Size Rated Air Flow Rate [m3/s], 8.05524E-003
 Component Sizing Information, Coil:Cooling:DX:VariableRefrigerantFlow, BLOCK1:ZONE4 VRF INDOOR UNIT DX COOLING COIL, Design Size Gross Rated Total Cooling Capacity [W], 133.34283
 Component Sizing Information, Coil:Cooling:DX:VariableRefrigerantFlow, BLOCK1:ZONE4 VRF INDOOR UNIT DX COOLING COIL, Design Size Gross Rated Sensible Heat Ratio, 0.80066
 Component Sizing Information, Coil:Heating:DX:VariableRefrigerantFlow, BLOCK1:ZONE4 VRF INDOOR UNIT DX HEATING COIL, Design Size Rated Air Flow Rate [m3/s], 8.05524E-003
 Component Sizing Information, Coil:Heating:DX:VariableRefrigerantFlow, BLOCK1:ZONE4 VRF INDOOR UNIT DX HEATING COIL, Design Size Gross Rated Heating Capacity [W], 133.34283
 Component Sizing Information, Fan:ConstantVolume, BLOCK1:ZONE4 VRF INDOOR UNIT SUPPLY FAN, Design Size Maximum Flow Rate [m3/s], 8.05524E-003
 Component Sizing Information, AirConditioner:VariableRefrigerantFlow, VRF OUTDOOR UNIT_BLOCK1:ZONE4, Design Size Rated Total Cooling Capacity (gross) [W], 133.34283
 Component Sizing Information, AirConditioner:VariableRefrigerantFlow, VRF OUTDOOR UNIT_BLOCK1:ZONE4, Design Size Rated Total Heating Capacity [W], 133.34283
 Component Sizing Information, AirConditioner:VariableRefrigerantFlow, VRF OUTDOOR UNIT_BLOCK1:ZONE4, Design Size Resistive Defrost Heater Capacity, 133.34283
 Component Sizing Information, AirConditioner:VariableRefrigerantFlow, VRF OUTDOOR UNIT_BLOCK1:ZONE4, Design Size Evaporative Condenser Air Flow Rate [m3/s], 1.52011E-002
 Component Sizing Information, AirConditioner:VariableRefrigerantFlow, VRF OUTDOOR UNIT_BLOCK1:ZONE4, Design Size Evaporative Condenser Pump Rated Power Consumption [W], 0.56884
 VRF System Information, AirConditioner:VariableRefrigerantFlow, VRF OUTDOOR UNIT_BLOCK1:ZONE4, 1.00000, 1.00000, 0.91519, 0.99797
! <Zone Surfaces>,Zone Name,# Surfaces
! <Shading Surfaces>,Number of Shading Surfaces,# Surfaces
! <HeatTransfer Surface>,Surface Name,Surface Class,Base Surface,Heat Transfer Algorithm,Construction,Nominal U (w/o film coefs) {W/m2-K},Nominal U (with film coefs) {W/m2-K},Solar Diffusing,Area (Net) {m2},Area (Gross) {m2},Area (Sunlit Calc) {m2},Azimuth {deg},Tilt {deg},~Width {m},~Height {m},Reveal {m},ExtBoundCondition,ExtConvCoeffCalc,IntConvCoeffCalc,SunExposure,WindExposure,ViewFactorToGround,ViewFactorToSky,ViewFactorToGround-IR,ViewFactorToSky-IR,#Sides
! <Shading Surface>,Surface Name,Surface Class,Base Surface,Heat Transfer Algorithm,Transmittance Schedule,Min Schedule Value,Max Schedule Value,Solar Diffusing,Area (Net) {m2},Area (Gross) {m2},Area (Sunlit Calc) {m2},Azimuth {deg},Tilt {deg},~Width {m},~Height {m},Reveal {m},ExtBoundCondition,ExtConvCoeffCalc,IntConvCoeffCalc,SunExposure,WindExposure,ViewFactorToGround,ViewFactorToSky,ViewFactorToGround-IR,ViewFactorToSky-IR,#Sides
! <Frame/Divider Surface>,Surface Name,Surface Class,Base Surface,Heat Transfer Algorithm,Construction,Nominal U (w/o film coefs) {W/m2-K},Nominal U (with film coefs) {W/m2-K},Solar Diffusing,Area (Net) {m2},Area (Gross) {m2},Area (Sunlit Calc) {m2},Azimuth {deg},Tilt {deg},~Width {m},~Height {m},Reveal {m}
Shading Surfaces,Number of Shading Surfaces,156
Shading Surface,EXT1,Detached Shading:Building,,None,,0.0,0.0, ,2.13,2.13,2.13,180.00,0.00,1.48,1.44,,,,,,,,,,,4
Shading Surface,Mir-EXT1,Detached Shading:Building,,None,,0.0,0.0, ,2.13,2.13,2.13,0.00,180.00,1.48,1.44,,,,,,,,,,,4
Shading Surface,EXT2,Detached Shading:Building,,None,,0.0,0.0, ,1.82,1.82,1.82,180.00,0.00,1.02,1.78,,,,,,,,,,,4
Shading Surface,Mir-EXT2,Detached Shading:Building,,None,,0.0,0.0, ,1.82,1.82,1.82,0.00,180.00,1.02,1.78,,,,,,,,,,,4
Shading Surface,EXT3,Detached Shading:Building,,None,,0.0,0.0, ,6.75,6.75,6.75,0.00,90.00,2.50,2.70,,,,,,,,,,,4
Shading Surface,Mir-EXT3,Detached Shading:Building,,None,,0.0,0.0, ,6.75,6.75,6.75,180.00,90.00,2.50,2.70,,,,,,,,,,,4
Shading Surface,EXT4,Detached Shading:Building,,None,,0.0,0.0, ,3.89,3.89,3.89,270.00,90.00,1.44,2.70,,,,,,,,,,,4
Shading Surface,Mir-EXT4,Detached Shading:Building,,None,,0.0,0.0, ,3.89,3.89,3.89,90.00,90.00,1.44,2.70,,,,,,,,,,,4
Shading Surface,EXT5,Detached Shading:Building,,None,,0.0,0.0, ,16.91,16.91,16.91,180.00,0.00,4.45,3.80,,,,,,,,,,,4
Shading Surface,Mir-EXT5,Detached Shading:Building,,None,,0.0,0.0, ,16.91,16.91,16.91,0.00,180.00,4.45,3.80,,,,,,,,,,,4
Shading Surface,EXT6,Detached Shading:Building,,None,,0.0,0.0, ,10.26,10.26,10.26,90.00,90.00,3.80,2.70,,,,,,,,,,,4
Shading Surface,Mir-EXT6,Detached Shading:Building,,None,,0.0,0.0, ,10.26,10.26,10.26,270.00,90.00,3.80,2.70,,,,,,,,,,,4
Shading Surface,EXT7,Detached Shading:Building,,None,,0.0,0.0, ,12.02,12.02,12.02,0.00,90.00,4.45,2.70,,,,,,,,,,,4
Shading Surface,Mir-EXT7,Detached Shading:Building,,None,,0.0,0.0, ,12.02,12.02,12.02,180.00,90.00,4.45,2.70,,,,,,,,,,,4
Shading Surface,EXT8,Detached Shading:Building,,None,,0.0,0.0, ,0.75,0.75,0.75,180.00,0.00,1.02,0.74,,,,,,,,,,,4
Shading Surface,Mir-EXT8,Detached Shading:Building,,None,,0.0,0.0, ,0.75,0.75,0.75,0.00,180.00,1.02,0.74,,,,,,,,,,,4
Shading Surface,EXT9,Detached Shading:Building,,None,,0.0,0.0, ,3.20,3.20,3.20,180.00,0.00,2.50,1.28,,,,,,,,,,,4
Shading Surface,Mir-EXT9,Detached Shading:Building,,None,,0.0,0.0, ,3.20,3.20,3.20,0.00,180.00,2.50,1.28,,,,,,,,,,,4
Shading Surface,EXT10,Detached Shading:Building,,None,,0.0,0.0, ,12.00,12.00,12.00,180.00,0.00,3.87,3.10,,,,,,,,,,,4
Shading Surface,Mir-EXT10,Detached Shading:Building,,None,,0.0,0.0, ,12.00,12.00,12.00,0.00,180.00,3.87,3.10,,,,,,,,,,,4
Shading Surface,EXT11,Detached Shading:Building,,None,,0.0,0.0, ,3.46,3.46,3.46,270.00,90.00,1.28,2.70,,,,,,,,,,,4
Shading Surface,Mir-EXT11,Detached Shading:Building,,None,,0.0,0.0, ,3.46,3.46,3.46,90.00,90.00,1.28,2.70,,,,,,,,,,,4
Shading Surface,EXT12,Detached Shading:Building,,None,,0.0,0.0, ,3.70,3.70,3.70,0.00,90.00,1.37,2.70,,,,,,,,,,,4
Shading Surface,Mir-EXT12,Detached Shading:Building,,None,,0.0,0.0, ,3.70,3.70,3.70,180.00,90.00,1.37,2.70,,,,,,,,,,,4
Shading Surface,EXT13,Detached Shading:Building,,None,,0.0,0.0, ,10.45,10.45,10.45,180.00,90.00,3.87,2.70,,,,,,,,,,,4
Shading Surface,Mir-EXT13,Detached Shading:Building,,None,,0.0,0.0, ,10.45,10.45,10.45,0.00,90.00,3.87,2.70,,,,,,,,,,,4
Shading Surface,EXT14,Detached Shading:Building,,None,,0.0,0.0, ,13.80,13.80,13.80,180.00,0.00,4.45,3.10,,,,,,,,,,,4
Shading Surface,Mir-EXT14,Detached Shading:Building,,None,,0.0,0.0, ,13.80,13.80,13.80,0.00,180.00,4.45,3.10,,,,,,,,,,,4
Shading Surface,EXT15,Detached Shading:Building,,None,,0.0,0.0, ,8.37,8.37,8.37,90.00,90.00,3.10,2.70,,,,,,,,,,,4
Shading Surface,Mir-EXT15,Detached Shading:Building,,None,,0.0,0.0, ,8.37,8.37,8.37,270.00,90.00,3.10,2.70,,,,,,,,,,,4
Shading Surface,EXT16,Detached Shading:Building,,None,,0.0,0.0, ,12.02,12.02,12.02,180.00,90.00,4.45,2.70,,,,,,,,,,,4
Shading Surface,Mir-EXT16,Detached Shading:Building,,None,,0.0,0.0, ,12.02,12.02,12.02,0.00,90.00,4.45,2.70,,,,,,,,,,,4
Shading Surface,EXT17,Detached Shading:Building,,None,,0.0,0.0, ,1.60,1.60,1.60,180.00,0.00,1.48,1.08,,,,,,,,,,,4
Shading Surface,Mir-EXT17,Detached Shading:Building,,None,,0.0,0.0, ,1.60,1.60,1.60,0.00,180.00,1.48,1.08,,,,,,,,,,,4
Shading Surface,EXT18,Detached Shading:Building,,None,,0.0,0.0, ,2.92,2.92,2.92,270.00,90.00,1.08,2.70,,,,,,,,,,,4
Shading Surface,Mir-EXT18,Detached Shading:Building,,None,,0.0,0.0, ,2.92,2.92,2.92,90.00,90.00,1.08,2.70,,,,,,,,,,,4
Shading Surface,POLYGON 1 OF BUILDING 1 - SHADING PLANE 1,Detached Shading:Building,,None,TRANSMITTANCE SCHEDULE FOR BUILDING 1 - SHADING PLANE 1,0.00,0.00, ,0.15,0.15,0.15,270.00,90.00,2.50,6.00E-002,,,,,,,,,,,4
Shading Surface,Mir-POLYGON 1 OF BUILDING 1 - SHADING PLANE 1,Detached Shading:Building,,None,TRANSMITTANCE SCHEDULE FOR BUILDING 1 - SHADING PLANE 1,0.00,0.00, ,0.15,0.15,0.15,90.00,90.00,2.50,6.00E-002,,,,,,,,,,,4
Shading Surface,POLYGON 1 OF BUILDING 1 - SHADING PLANE 2,Detached Shading:Building,,None,TRANSMITTANCE SCHEDULE FOR BUILDING 1 - SHADING PLANE 2,0.00,0.00, ,3.45,3.45,3.45,180.00,90.00,1.38,2.50,,,,,,,,,,,4
Shading Surface,Mir-POLYGON 1 OF BUILDING 1 - SHADING PLANE 2,Detached Shading:Building,,None,TRANSMITTANCE SCHEDULE FOR BUILDING 1 - SHADING PLANE 2,0.00,0.00, ,3.45,3.45,3.45,0.00,90.00,1.38,2.50,,,,,,,,,,,4
Shading Surface,POLYGON 1 OF BUILDING 1 - SHADING PLANE 3,Detached Shading:Building,,None,TRANSMITTANCE SCHEDULE FOR BUILDING 1 - SHADING PLANE 3,0.00,0.00, ,3.45,3.45,3.45,180.00,90.00,1.38,2.50,,,,,,,,,,,4
Shading Surface,Mir-POLYGON 1 OF BUILDING 1 - SHADING PLANE 3,Detached Shading:Building,,None,TRANSMITTANCE SCHEDULE FOR BUILDING 1 - SHADING PLANE 3,0.00,0.00, ,3.45,3.45,3.45,0.00,90.00,1.38,2.50,,,,,,,,,,,4
Shading Surface,POLYGON 1 OF BUILDING 1 - SHADING PLANE 4,Detached Shading:Building,,None,TRANSMITTANCE SCHEDULE FOR BUILDING 1 - SHADING PLANE 4,0.00,0.00, ,3.15,3.15,3.15,90.00,90.00,1.26,2.50,,,,,,,,,,,4
Shading Surface,Mir-POLYGON 1 OF BUILDING 1 - SHADING PLANE 4,Detached Shading:Building,,None,TRANSMITTANCE SCHEDULE FOR BUILDING 1 - SHADING PLANE 4,0.00,0.00, ,3.15,3.15,3.15,270.00,90.00,1.26,2.50,,,,,,,,,,,4
Shading Surface,POLYGON 1 OF BUILDING 1 - SHADING PLANE 5,Detached Shading:Building,,None,TRANSMITTANCE SCHEDULE FOR BUILDING 1 - SHADING PLANE 5,0.00,0.00, ,3.35,3.35,3.35,0.00,90.00,2.50,1.34,,,,,,,,,,,4
Shading Surface,Mir-POLYGON 1 OF BUILDING 1 - SHADING PLANE 5,Detached Shading:Building,,None,TRANSMITTANCE SCHEDULE FOR BUILDING 1 - SHADING PLANE 5,0.00,0.00, ,3.35,3.35,3.35,180.00,90.00,2.50,1.34,,,,,,,,,,,4
Shading Surface,POLYGON 1 OF BUILDING 1 - SHADING PLANE 6,Detached Shading:Building,,None,TRANSMITTANCE SCHEDULE FOR BUILDING 1 - SHADING PLANE 6,0.00,0.00, ,3.35,3.35,3.35,0.00,90.00,2.50,1.34,,,,,,,,,,,4
Shading Surface,Mir-POLYGON 1 OF BUILDING 1 - SHADING PLANE 6,Detached Shading:Building,,None,TRANSMITTANCE SCHEDULE FOR BUILDING 1 - SHADING PLANE 6,0.00,0.00, ,3.35,3.35,3.35,180.00,90.00,2.50,1.34,,,,,,,,,,,4
Shading Surface,POLYGON 1 OF BUILDING 1 - SHADING PLANE 7,Detached Shading:Building,,None,TRANSMITTANCE SCHEDULE FOR BUILDING 1 - SHADING PLANE 7,0.00,0.00, ,0.32,0.32,0.32,270.00,90.00,0.16,2.02,,,,,,,,,,,4
Shading Surface,Mir-POLYGON 1 OF BUILDING 1 - SHADING PLANE 7,Detached Shading:Building,,None,TRANSMITTANCE SCHEDULE FOR BUILDING 1 - SHADING PLANE 7,0.00,0.00, ,0.32,0.32,0.32,90.00,90.00,0.16,2.02,,,,,,,,,,,4
Shading Surface,POLYGON 2 OF BUILDING 1 - SHADING PLANE 7,Detached Shading:Building,,None,TRANSMITTANCE SCHEDULE FOR BUILDING 1 - SHADING PLANE 7,0.00,0.00, ,0.53,0.53,0.53,270.00,90.00,1.10,0.48,,,,,,,,,,,4
Shading Surface,Mir-POLYGON 2 OF BUILDING 1 - SHADING PLANE 7,Detached Shading:Building,,None,TRANSMITTANCE SCHEDULE FOR BUILDING 1 - SHADING PLANE 7,0.00,0.00, ,0.53,0.53,0.53,90.00,90.00,1.10,0.48,,,,,,,,,,,4
Shading Surface,POLYGON 3 OF BUILDING 1 - SHADING PLANE 7,Detached Shading:Building,,None,TRANSMITTANCE SCHEDULE FOR BUILDING 1 - SHADING PLANE 7,0.00,0.00, ,0.40,0.40,0.40,270.00,90.00,2.50,0.16,,,,,,,,,,,4
Shading Surface,Mir-POLYGON 3 OF BUILDING 1 - SHADING PLANE 7,Detached Shading:Building,,None,TRANSMITTANCE SCHEDULE FOR BUILDING 1 - SHADING PLANE 7,0.00,0.00, ,0.40,0.40,0.40,90.00,90.00,2.50,0.16,,,,,,,,,,,4
Shading Surface,POLYGON 1 OF BUILDING 1 - SHADING PLANE 8,Detached Shading:Building,,None,TRANSMITTANCE SCHEDULE FOR BUILDING 1 - SHADING PLANE 8,0.00,0.00, ,2.11,2.11,2.11,90.00,0.00,1.60,1.32,,,,,,,,,,,4
Shading Surface,Mir-POLYGON 1 OF BUILDING 1 - SHADING PLANE 8,Detached Shading:Building,,None,TRANSMITTANCE SCHEDULE FOR BUILDING 1 - SHADING PLANE 8,0.00,0.00, ,2.11,2.11,2.11,270.00,180.00,1.60,1.32,,,,,,,,,,,4
Shading Surface,POLYGON 2 OF BUILDING 1 - SHADING PLANE 8,Detached Shading:Building,,None,TRANSMITTANCE SCHEDULE FOR BUILDING 1 - SHADING PLANE 8,0.00,0.00, ,1.98,1.98,1.98,90.00,0.00,1.50,1.32,,,,,,,,,,,4
Shading Surface,Mir-POLYGON 2 OF BUILDING 1 - SHADING PLANE 8,Detached Shading:Building,,None,TRANSMITTANCE SCHEDULE FOR BUILDING 1 - SHADING PLANE 8,0.00,0.00, ,1.98,1.98,1.98,270.00,180.00,1.50,1.32,,,,,,,,,,,4
Shading Surface,POLYGON 3 OF BUILDING 1 - SHADING PLANE 8,Detached Shading:Building,,None,TRANSMITTANCE SCHEDULE FOR BUILDING 1 - SHADING PLANE 8,0.00,0.00, ,10.43,10.43,10.43,90.00,0.00,1.50,6.95,,,,,,,,,,,4
Shading Surface,Mir-POLYGON 3 OF BUILDING 1 - SHADING PLANE 8,Detached Shading:Building,,None,TRANSMITTANCE SCHEDULE FOR BUILDING 1 - SHADING PLANE 8,0.00,0.00, ,10.43,10.43,10.43,270.00,180.00,1.50,6.95,,,,,,,,,,,4
Shading Surface,POLYGON 4 OF BUILDING 1 - SHADING PLANE 8,Detached Shading:Building,,None,TRANSMITTANCE SCHEDULE FOR BUILDING 1 - SHADING PLANE 8,0.00,0.00, ,0.84,0.84,0.84,90.00,0.00,8.40,1.00E-001,,,,,,,,,,,4
Shading Surface,Mir-POLYGON 4 OF BUILDING 1 - SHADING PLANE 8,Detached Shading:Building,,None,TRANSMITTANCE SCHEDULE FOR BUILDING 1 - SHADING PLANE 8,0.00,0.00, ,0.84,0.84,0.84,270.00,180.00,8.40,1.00E-001,,,,,,,,,,,4
Shading Surface,POLYGON 5 OF BUILDING 1 - SHADING PLANE 8,Detached Shading:Building,,None,TRANSMITTANCE SCHEDULE FOR BUILDING 1 - SHADING PLANE 8,0.00,0.00, ,0.70,0.70,0.70,180.00,0.00,7.05,1.00E-001,,,,,,,,,,,4
Shading Surface,Mir-POLYGON 5 OF BUILDING 1 - SHADING PLANE 8,Detached Shading:Building,,None,TRANSMITTANCE SCHEDULE FOR BUILDING 1 - SHADING PLANE 8,0.00,0.00, ,0.70,0.70,0.70,0.00,180.00,7.05,1.00E-001,,,,,,,,,,,4
Shading Surface,POLYGON 6 OF BUILDING 1 - SHADING PLANE 8,Detached Shading:Building,,None,TRANSMITTANCE SCHEDULE FOR BUILDING 1 - SHADING PLANE 8,0.00,0.00, ,0.15,0.15,0.15,270.00,0.00,1.50,0.10,,,,,,,,,,,4
Shading Surface,Mir-POLYGON 6 OF BUILDING 1 - SHADING PLANE 8,Detached Shading:Building,,None,TRANSMITTANCE SCHEDULE FOR BUILDING 1 - SHADING PLANE 8,0.00,0.00, ,0.15,0.15,0.15,90.00,180.00,1.50,0.10,,,,,,,,,,,4
Shading Surface,POLYGON 7 OF BUILDING 1 - SHADING PLANE 8,Detached Shading:Building,,None,TRANSMITTANCE SCHEDULE FOR BUILDING 1 - SHADING PLANE 8,0.00,0.00, ,0.39,0.39,0.39,270.00,0.00,3.90,0.10,,,,,,,,,,,4
Shading Surface,Mir-POLYGON 7 OF BUILDING 1 - SHADING PLANE 8,Detached Shading:Building,,None,TRANSMITTANCE SCHEDULE FOR BUILDING 1 - SHADING PLANE 8,0.00,0.00, ,0.39,0.39,0.39,90.00,180.00,3.90,0.10,,,,,,,,,,,4
Shading Surface,POLYGON 1 OF BUILDING 1 - SHADING PLANE 9,Detached Shading:Building,,None,TRANSMITTANCE SCHEDULE FOR BUILDING 1 - SHADING PLANE 9,0.00,0.00, ,0.31,0.31,0.31,0.00,0.00,1.00E-001,3.10,,,,,,,,,,,4
Shading Surface,Mir-POLYGON 1 OF BUILDING 1 - SHADING PLANE 9,Detached Shading:Building,,None,TRANSMITTANCE SCHEDULE FOR BUILDING 1 - SHADING PLANE 9,0.00,0.00, ,0.31,0.31,0.31,180.00,180.00,1.00E-001,3.10,,,,,,,,,,,4
Shading Surface,POLYGON 2 OF BUILDING 1 - SHADING PLANE 9,Detached Shading:Building,,None,TRANSMITTANCE SCHEDULE FOR BUILDING 1 - SHADING PLANE 9,0.00,0.00, ,12.63,12.63,12.63,0.00,0.00,8.42,1.50,,,,,,,,,,,4
Shading Surface,Mir-POLYGON 2 OF BUILDING 1 - SHADING PLANE 9,Detached Shading:Building,,None,TRANSMITTANCE SCHEDULE FOR BUILDING 1 - SHADING PLANE 9,0.00,0.00, ,12.63,12.63,12.63,180.00,180.00,8.42,1.50,,,,,,,,,,,4
Shading Surface,POLYGON 3 OF BUILDING 1 - SHADING PLANE 9,Detached Shading:Building,,None,TRANSMITTANCE SCHEDULE FOR BUILDING 1 - SHADING PLANE 9,0.00,0.00, ,0.23,0.23,0.23,90.00,0.00,4.60,5.00E-002,,,,,,,,,,,4
Shading Surface,Mir-POLYGON 3 OF BUILDING 1 - SHADING PLANE 9,Detached Shading:Building,,None,TRANSMITTANCE SCHEDULE FOR BUILDING 1 - SHADING PLANE 9,0.00,0.00, ,0.23,0.23,0.23,270.00,180.00,4.60,5.00E-002,,,,,,,,,,,4
Shading Surface,POLYGON 4 OF BUILDING 1 - SHADING PLANE 9,Detached Shading:Building,,None,TRANSMITTANCE SCHEDULE FOR BUILDING 1 - SHADING PLANE 9,0.00,0.00, ,3.50E-002,3.50E-002,3.50E-002,180.00,0.00,1.00E-001,0.35,,,,,,,,,,,4
Shading Surface,Mir-POLYGON 4 OF BUILDING 1 - SHADING PLANE 9,Detached Shading:Building,,None,TRANSMITTANCE SCHEDULE FOR BUILDING 1 - SHADING PLANE 9,0.00,0.00, ,3.50E-002,3.50E-002,3.50E-002,0.00,180.00,1.00E-001,0.35,,,,,,,,,,,4
Shading Surface,POLYGON 5 OF BUILDING 1 - SHADING PLANE 9,Detached Shading:Building,,None,TRANSMITTANCE SCHEDULE FOR BUILDING 1 - SHADING PLANE 9,0.00,0.00, ,0.50,0.50,0.50,180.00,0.00,1.42,0.35,,,,,,,,,,,4
Shading Surface,Mir-POLYGON 5 OF BUILDING 1 - SHADING PLANE 9,Detached Shading:Building,,None,TRANSMITTANCE SCHEDULE FOR BUILDING 1 - SHADING PLANE 9,0.00,0.00, ,0.50,0.50,0.50,0.00,180.00,1.42,0.35,,,,,,,,,,,4
Shading Surface,POLYGON 6 OF BUILDING 1 - SHADING PLANE 9,Detached Shading:Building,,None,TRANSMITTANCE SCHEDULE FOR BUILDING 1 - SHADING PLANE 9,0.00,0.00, ,0.22,0.22,0.22,0.00,0.00,0.10,2.20,,,,,,,,,,,4
Shading Surface,Mir-POLYGON 6 OF BUILDING 1 - SHADING PLANE 9,Detached Shading:Building,,None,TRANSMITTANCE SCHEDULE FOR BUILDING 1 - SHADING PLANE 9,0.00,0.00, ,0.22,0.22,0.22,180.00,180.00,0.10,2.20,,,,,,,,,,,4
Shading Surface,POLYGON 7 OF BUILDING 1 - SHADING PLANE 9,Detached Shading:Building,,None,TRANSMITTANCE SCHEDULE FOR BUILDING 1 - SHADING PLANE 9,0.00,0.00, ,1.77,1.77,1.77,0.00,0.00,1.42,1.25,,,,,,,,,,,4
Shading Surface,Mir-POLYGON 7 OF BUILDING 1 - SHADING PLANE 9,Detached Shading:Building,,None,TRANSMITTANCE SCHEDULE FOR BUILDING 1 - SHADING PLANE 9,0.00,0.00, ,1.77,1.77,1.77,180.00,180.00,1.42,1.25,,,,,,,,,,,4
Shading Surface,POLYGON 8 OF BUILDING 1 - SHADING PLANE 9,Detached Shading:Building,,None,TRANSMITTANCE SCHEDULE FOR BUILDING 1 - SHADING PLANE 9,0.00,0.00, ,0.70,0.70,0.70,180.00,0.00,7.05,1.00E-001,,,,,,,,,,,4
Shading Surface,Mir-POLYGON 8 OF BUILDING 1 - SHADING PLANE 9,Detached Shading:Building,,None,TRANSMITTANCE SCHEDULE FOR BUILDING 1 - SHADING PLANE 9,0.00,0.00, ,0.70,0.70,0.70,0.00,180.00,7.05,1.00E-001,,,,,,,,,,,4
Shading Surface,POLYGON 9 OF BUILDING 1 - SHADING PLANE 9,Detached Shading:Building,,None,TRANSMITTANCE SCHEDULE FOR BUILDING 1 - SHADING PLANE 9,0.00,0.00, ,0.35,0.35,0.35,270.00,0.00,3.55,1.00E-001,,,,,,,,,,,4
Shading Surface,Mir-POLYGON 9 OF BUILDING 1 - SHADING PLANE 9,Detached Shading:Building,,None,TRANSMITTANCE SCHEDULE FOR BUILDING 1 - SHADING PLANE 9,0.00,0.00, ,0.35,0.35,0.35,90.00,180.00,3.55,1.00E-001,,,,,,,,,,,4
Shading Surface,POLYGON 1 OF BUILDING 1 - SHADING PLANE 10,Detached Shading:Building,,None,TRANSMITTANCE SCHEDULE FOR BUILDING 1 - SHADING PLANE 10,0.00,0.00, ,0.25,0.25,0.25,0.00,90.00,2.50,0.10,,,,,,,,,,,4
Shading Surface,Mir-POLYGON 1 OF BUILDING 1 - SHADING PLANE 10,Detached Shading:Building,,None,TRANSMITTANCE SCHEDULE FOR BUILDING 1 - SHADING PLANE 10,0.00,0.00, ,0.25,0.25,0.25,180.00,90.00,2.50,0.10,,,,,,,,,,,4
Shading Surface,POLYGON 1 OF BUILDING 1 - SHADING PLANE 11,Detached Shading:Building,,None,TRANSMITTANCE SCHEDULE FOR BUILDING 1 - SHADING PLANE 11,0.00,0.00, ,0.25,0.25,0.25,180.00,90.00,0.10,2.50,,,,,,,,,,,4
Shading Surface,Mir-POLYGON 1 OF BUILDING 1 - SHADING PLANE 11,Detached Shading:Building,,None,TRANSMITTANCE SCHEDULE FOR BUILDING 1 - SHADING PLANE 11,0.00,0.00, ,0.25,0.25,0.25,0.00,90.00,0.10,2.50,,,,,,,,,,,4
Shading Surface,POLYGON 1 OF BUILDING 1 - SHADING PLANE 12,Detached Shading:Building,,None,TRANSMITTANCE SCHEDULE FOR BUILDING 1 - SHADING PLANE 12,0.00,0.00, ,0.15,0.15,0.15,90.00,90.00,6.00E-002,2.50,,,,,,,,,,,4
Shading Surface,Mir-POLYGON 1 OF BUILDING 1 - SHADING PLANE 12,Detached Shading:Building,,None,TRANSMITTANCE SCHEDULE FOR BUILDING 1 - SHADING PLANE 12,0.00,0.00, ,0.15,0.15,0.15,270.00,90.00,6.00E-002,2.50,,,,,,,,,,,4
Shading Surface,POLYGON 1 OF BUILDING 1 - SHADING PLANE 13,Detached Shading:Building,,None,TRANSMITTANCE SCHEDULE FOR BUILDING 1 - SHADING PLANE 13,0.00,0.00, ,3.15,3.15,3.15,270.00,90.00,2.50,1.26,,,,,,,,,,,4
Shading Surface,Mir-POLYGON 1 OF BUILDING 1 - SHADING PLANE 13,Detached Shading:Building,,None,TRANSMITTANCE SCHEDULE FOR BUILDING 1 - SHADING PLANE 13,0.00,0.00, ,3.15,3.15,3.15,90.00,90.00,2.50,1.26,,,,,,,,,,,4
Shading Surface,POLYGON 1 OF BUILDING 1 - SHADING PLANE 14,Detached Shading:Building,,None,TRANSMITTANCE SCHEDULE FOR BUILDING 1 - SHADING PLANE 14,0.00,0.00, ,0.32,0.32,0.32,90.00,90.00,0.16,2.02,,,,,,,,,,,4
Shading Surface,Mir-POLYGON 1 OF BUILDING 1 - SHADING PLANE 14,Detached Shading:Building,,None,TRANSMITTANCE SCHEDULE FOR BUILDING 1 - SHADING PLANE 14,0.00,0.00, ,0.32,0.32,0.32,270.00,90.00,0.16,2.02,,,,,,,,,,,4
Shading Surface,POLYGON 2 OF BUILDING 1 - SHADING PLANE 14,Detached Shading:Building,,None,TRANSMITTANCE SCHEDULE FOR BUILDING 1 - SHADING PLANE 14,0.00,0.00, ,0.53,0.53,0.53,90.00,90.00,1.10,0.48,,,,,,,,,,,4
Shading Surface,Mir-POLYGON 2 OF BUILDING 1 - SHADING PLANE 14,Detached Shading:Building,,None,TRANSMITTANCE SCHEDULE FOR BUILDING 1 - SHADING PLANE 14,0.00,0.00, ,0.53,0.53,0.53,270.00,90.00,1.10,0.48,,,,,,,,,,,4
Shading Surface,POLYGON 3 OF BUILDING 1 - SHADING PLANE 14,Detached Shading:Building,,None,TRANSMITTANCE SCHEDULE FOR BUILDING 1 - SHADING PLANE 14,0.00,0.00, ,0.40,0.40,0.40,90.00,90.00,2.50,0.16,,,,,,,,,,,4
Shading Surface,Mir-POLYGON 3 OF BUILDING 1 - SHADING PLANE 14,Detached Shading:Building,,None,TRANSMITTANCE SCHEDULE FOR BUILDING 1 - SHADING PLANE 14,0.00,0.00, ,0.40,0.40,0.40,270.00,90.00,2.50,0.16,,,,,,,,,,,4
Shading Surface,BUILDING 1 - COMPONENT BLOCK 1 - SURFACE 1 (51),Detached Shading:Building,,None,TRANSMITTANCE SCHEDULE FOR BUILDING 1 - COMPONENT BLOCK 1,0.00,0.00, ,26.41,26.41,26.41,0.00,180.00,6.95,3.80,,,,,,,,,,,4
Shading Surface,Mir-BUILDING 1 - COMPONENT BLOCK 1 - SURFACE 1 (51),Detached Shading:Building,,None,TRANSMITTANCE SCHEDULE FOR BUILDING 1 - COMPONENT BLOCK 1,0.00,0.00, ,26.41,26.41,26.41,180.00,0.00,6.95,3.80,,,,,,,,,,,4
Shading Surface,BUILDING 1 - COMPONENT BLOCK 1 - SURFACE 2 (52),Detached Shading:Building,,None,TRANSMITTANCE SCHEDULE FOR BUILDING 1 - COMPONENT BLOCK 1,0.00,0.00, ,30.35,30.35,30.35,0.00,180.00,9.79,3.10,,,,,,,,,,,4
Shading Surface,Mir-BUILDING 1 - COMPONENT BLOCK 1 - SURFACE 2 (52),Detached Shading:Building,,None,TRANSMITTANCE SCHEDULE FOR BUILDING 1 - COMPONENT BLOCK 1,0.00,0.00, ,30.35,30.35,30.35,180.00,0.00,9.79,3.10,,,,,,,,,,,4
Shading Surface,BUILDING 1 - COMPONENT BLOCK 1 - SURFACE 3 (53),Detached Shading:Building,,None,TRANSMITTANCE SCHEDULE FOR BUILDING 1 - COMPONENT BLOCK 1,0.00,0.00, ,47.96,47.96,47.96,0.00,180.00,6.95,6.90,,,,,,,,,,,4
Shading Surface,Mir-BUILDING 1 - COMPONENT BLOCK 1 - SURFACE 3 (53),Detached Shading:Building,,None,TRANSMITTANCE SCHEDULE FOR BUILDING 1 - COMPONENT BLOCK 1,0.00,0.00, ,47.96,47.96,47.96,180.00,0.00,6.95,6.90,,,,,,,,,,,4
Shading Surface,BUILDING 1 - COMPONENT BLOCK 1 - SURFACE 4 (54),Detached Shading:Building,,None,TRANSMITTANCE SCHEDULE FOR BUILDING 1 - COMPONENT BLOCK 1,0.00,0.00, ,26.41,26.41,26.41,180.00,0.00,6.95,3.80,,,,,,,,,,,4
Shading Surface,Mir-BUILDING 1 - COMPONENT BLOCK 1 - SURFACE 4 (54),Detached Shading:Building,,None,TRANSMITTANCE SCHEDULE FOR BUILDING 1 - COMPONENT BLOCK 1,0.00,0.00, ,26.41,26.41,26.41,0.00,180.00,6.95,3.80,,,,,,,,,,,4
Shading Surface,BUILDING 1 - COMPONENT BLOCK 1 - SURFACE 5 (55),Detached Shading:Building,,None,TRANSMITTANCE SCHEDULE FOR BUILDING 1 - COMPONENT BLOCK 1,0.00,0.00, ,30.35,30.35,30.35,180.00,0.00,9.79,3.10,,,,,,,,,,,4
Shading Surface,Mir-BUILDING 1 - COMPONENT BLOCK 1 - SURFACE 5 (55),Detached Shading:Building,,None,TRANSMITTANCE SCHEDULE FOR BUILDING 1 - COMPONENT BLOCK 1,0.00,0.00, ,30.35,30.35,30.35,0.00,180.00,9.79,3.10,,,,,,,,,,,4
Shading Surface,BUILDING 1 - COMPONENT BLOCK 1 - SURFACE 6 (56),Detached Shading:Building,,None,TRANSMITTANCE SCHEDULE FOR BUILDING 1 - COMPONENT BLOCK 1,0.00,0.00, ,47.96,47.96,47.96,180.00,0.00,6.95,6.90,,,,,,,,,,,4
Shading Surface,Mir-BUILDING 1 - COMPONENT BLOCK 1 - SURFACE 6 (56),Detached Shading:Building,,None,TRANSMITTANCE SCHEDULE FOR BUILDING 1 - COMPONENT BLOCK 1,0.00,0.00, ,47.96,47.96,47.96,0.00,180.00,6.95,6.90,,,,,,,,,,,4
Shading Surface,BUILDING 1 - COMPONENT BLOCK 1 - SURFACE 7 (57),Detached Shading:Building,,None,TRANSMITTANCE SCHEDULE FOR BUILDING 1 - COMPONENT BLOCK 1,0.00,0.00, ,24.33,24.33,24.33,0.00,90.00,6.95,3.50,,,,,,,,,,,4
Shading Surface,Mir-BUILDING 1 - COMPONENT BLOCK 1 - SURFACE 7 (57),Detached Shading:Building,,None,TRANSMITTANCE SCHEDULE FOR BUILDING 1 - COMPONENT BLOCK 1,0.00,0.00, ,24.33,24.33,24.33,180.00,90.00,6.95,3.50,,,,,,,,,,,4
Shading Surface,BUILDING 1 - COMPONENT BLOCK 1 - SURFACE 8 (58),Detached Shading:Building,,None,TRANSMITTANCE SCHEDULE FOR BUILDING 1 - COMPONENT BLOCK 1,0.00,0.00, ,13.30,13.30,13.30,90.00,90.00,3.80,3.50,,,,,,,,,,,4
Shading Surface,Mir-BUILDING 1 - COMPONENT BLOCK 1 - SURFACE 8 (58),Detached Shading:Building,,None,TRANSMITTANCE SCHEDULE FOR BUILDING 1 - COMPONENT BLOCK 1,0.00,0.00, ,13.30,13.30,13.30,270.00,90.00,3.80,3.50,,,,,,,,,,,4
Shading Surface,BUILDING 1 - COMPONENT BLOCK 1 - SURFACE 9 (59),Detached Shading:Building,,None,TRANSMITTANCE SCHEDULE FOR BUILDING 1 - COMPONENT BLOCK 1,0.00,0.00, ,9.94,9.94,9.94,0.00,90.00,2.84,3.50,,,,,,,,,,,4
Shading Surface,Mir-BUILDING 1 - COMPONENT BLOCK 1 - SURFACE 9 (59),Detached Shading:Building,,None,TRANSMITTANCE SCHEDULE FOR BUILDING 1 - COMPONENT BLOCK 1,0.00,0.00, ,9.94,9.94,9.94,180.00,90.00,2.84,3.50,,,,,,,,,,,4
Shading Surface,BUILDING 1 - COMPONENT BLOCK 1 - SURFACE 10 (60),Detached Shading:Building,,None,TRANSMITTANCE SCHEDULE FOR BUILDING 1 - COMPONENT BLOCK 1,0.00,0.00, ,13.30,13.30,13.30,270.00,90.00,3.80,3.50,,,,,,,,,,,4
Shading Surface,Mir-BUILDING 1 - COMPONENT BLOCK 1 - SURFACE 10 (60),Detached Shading:Building,,None,TRANSMITTANCE SCHEDULE FOR BUILDING 1 - COMPONENT BLOCK 1,0.00,0.00, ,13.30,13.30,13.30,90.00,90.00,3.80,3.50,,,,,,,,,,,4
Shading Surface,BUILDING 1 - COMPONENT BLOCK 1 - SURFACE 11 (61),Detached Shading:Building,,None,TRANSMITTANCE SCHEDULE FOR BUILDING 1 - COMPONENT BLOCK 1,0.00,0.00, ,24.33,24.33,24.33,0.00,90.00,6.95,3.50,,,,,,,,,,,4
Shading Surface,Mir-BUILDING 1 - COMPONENT BLOCK 1 - SURFACE 11 (61),Detached Shading:Building,,None,TRANSMITTANCE SCHEDULE FOR BUILDING 1 - COMPONENT BLOCK 1,0.00,0.00, ,24.33,24.33,24.33,180.00,90.00,6.95,3.50,,,,,,,,,,,4
Shading Surface,BUILDING 1 - COMPONENT BLOCK 1 - SURFACE 12 (62),Detached Shading:Building,,None,TRANSMITTANCE SCHEDULE FOR BUILDING 1 - COMPONENT BLOCK 1,0.00,0.00, ,24.15,24.15,24.15,90.00,90.00,6.90,3.50,,,,,,,,,,,4
Shading Surface,Mir-BUILDING 1 - COMPONENT BLOCK 1 - SURFACE 12 (62),Detached Shading:Building,,None,TRANSMITTANCE SCHEDULE FOR BUILDING 1 - COMPONENT BLOCK 1,0.00,0.00, ,24.15,24.15,24.15,270.00,90.00,6.90,3.50,,,,,,,,,,,4
[...]
Frame/Divider Surface,1,Divider:DividedLite,BLOCK1:ZONE1_PARTITION_5_0_0_0_0_0_WIN,,,N/A,N/A,,0.00,0.00,*,N/A,N/A,2.00E-002,N/A
HeatTransfer Surface,BLOCK1:ZONE1_PARTITION_6_0_0,Wall,,CTF - ConductionTransferFunction,GBXML R-O METAL FRAME WALL - AIMO779,3.360,2.236,,1.94,5.45,1.94,90.00,90.00,2.02,2.70,0.00,BLOCK1:ZONE5_PARTITION_6_0_10003,Other/Same Surface Int Conv,ASHRAETARP,NoSun,NoWind,0.00,0.50,0.50,0.50,4
HeatTransfer Surface,BLOCK1:ZONE1_PARTITION_6_0_0_0_0_0_WIN,Window,BLOCK1:ZONE1_PARTITION_6_0_0,Window5 Detailed Fenestration,1001,N/A,2.860,No,3.51,3.51,3.51,90.00,90.00,1.80,1.96,0.00,BLOCK1:ZONE5_PARTITION_6_0_0_0_0_0_WIN_10005,Other/Same Surface Int Conv,ASHRAETARP,NoSun,NoWind,0.00,0.50,0.50,0.50,4
Frame/Divider Surface,1,Frame,BLOCK1:ZONE1_PARTITION_6_0_0_0_0_0_WIN,Window5 Detailed Fenestration,,N/A,N/A,,0.00,0.00,*,N/A,N/A,4.00E-002,N/A
Frame/Divider Surface,1,Divider:DividedLite,BLOCK1:ZONE1_PARTITION_6_0_0_0_0_0_WIN,,,N/A,N/A,,0.00,0.00,*,N/A,N/A,2.00E-002,N/A
HeatTransfer Surface,BLOCK1:ZONE1_GROUNDFLOOR_0_0_0,Floor,,CTF - ConductionTransferFunction,GBXML PASSIVE FLOOR NO INSULATION CARPET OR HARDWOOD - AIMO795,2.362,1.501,,16.91,16.91,16.91,0.00,180.00,4.45,3.80,0.00,Ground,N/A-Ground,ASHRAETARP,NoSun,NoWind,1.00,0.00,1.00,0.00,4
HeatTransfer Surface,BLOCK1:ZONE1_ROOF_1_0_0,Roof,,CTF - ConductionTransferFunction,GBXML R-O WOOD OR STEEL FRAME ROOF - AIMO82O,3.927,2.257,,16.91,16.91,16.91,180.00,0.00,4.45,3.80,0.00,ExternalEnvironment,DOE-2,ASHRAETARP,SunExposed,WindExposed,0.00,1.00,1.00,1.27E-008,4
Zone Surfaces,BLOCK1:ZONE3,12
HeatTransfer Surface,BLOCK1:ZONE3_PARTITION_4_0_10000,Wall,,CTF - ConductionTransferFunction,GBXML R-O METAL FRAME WALL - AIMO779_REV,3.360,2.236,,4.81,4.81,4.81,270.00,90.00,1.78,2.70,0.00,BLOCK1:ZONE1_PARTITION_2_0_0,Other/Same Surface Int Conv,ASHRAETARP,NoSun,NoWind,0.00,0.50,0.50,0.50,4
HeatTransfer Surface,BLOCK1:ZONE3_WALL_2_0_0,Wall,,CTF - ConductionTransferFunction,GBXML R-O 8 IN CMU WALL - AIMO8O8,6.453,3.282,,3.89,3.89,3.89,90.00,90.00,1.44,2.70,0.00,ExternalEnvironment,DOE-2,ASHRAETARP,SunExposed,WindExposed,0.50,0.50,0.80,0.20,4
HeatTransfer Surface,BLOCK1:ZONE3_WALL_3_0_0,Wall,,CTF - ConductionTransferFunction,GBXML R-O 8 IN CMU WALL - AIMO8O8,6.453,3.282,,5.89,6.75,6.03,0.00,90.00,2.50,2.70,0.00,ExternalEnvironment,DOE-2,ASHRAETARP,SunExposed,WindExposed,0.50,0.50,0.52,0.48,4
HeatTransfer Surface,BLOCK1:ZONE3_WALL_3_0_0_0_0_0_WIN,Window,BLOCK1:ZONE3_WALL_3_0_0,Window5 Detailed Fenestration,1001,N/A,2.860,No,0.69,0.72,0.72,0.00,90.00,0.90,0.80,0.00,ExternalEnvironment,DOE-2,ASHRAETARP,SunExposed,WindExposed,0.50,0.50,0.50,0.50,4
Frame/Divider Surface,1,Frame,BLOCK1:ZONE3_WALL_3_0_0_0_0_0_WIN,Window5 Detailed Fenestration,,N/A,N/A,,0.14,0.14,*,N/A,N/A,4.00E-002,N/A
Frame/Divider Surface,1,Divider:DividedLite,BLOCK1:ZONE3_WALL_3_0_0_0_0_0_WIN,,,N/A,N/A,,3.36E-002,3.36E-002,*,N/A,N/A,2.00E-002,N/A
HeatTransfer Surface,BLOCK1:ZONE3_PARTITION_5_0_0,Wall,,CTF - ConductionTransferFunction,GBXML R-O METAL FRAME WALL - AIMO779,3.360,2.236,,1.07,2.75,1.07,180.00,90.00,1.02,2.70,0.00,BLOCK1:ZONE5_PARTITION_5_0_10005,Other/Same Surface Int Conv,ASHRAETARP,NoSun,NoWind,0.00,0.50,0.50,0.50,4
HeatTransfer Surface,BLOCK1:ZONE3_PARTITION_5_0_0_0_0_0_DOOR,Door,BLOCK1:ZONE3_PARTITION_5_0_0,CTF - ConductionTransferFunction,GBXML WOODEN - AIMO842,3.989,3.989,,1.68,1.68,1.68,180.00,90.00,0.83,2.01,0.00,BLOCK1:ZONE5_PARTITION_5_0_0_0_0_0_DOOR_10007,Other/Same Surface Int Conv,ASHRAETARP,NoSun,NoWind,0.00,0.50,0.50,0.50,4
HeatTransfer Surface,BLOCK1:ZONE3_PARTITION_6_0_0,Wall,,CTF - ConductionTransferFunction,GBXML R-O METAL FRAME WALL - AIMO779,3.360,2.236,,0.92,0.92,0.92,90.00,90.00,0.34,2.70,0.00,BLOCK1:ZONE4_PARTITION_4_0_10007,Other/Same Surface Int Conv,ASHRAETARP,NoSun,NoWind,0.00,0.50,0.50,0.50,4
HeatTransfer Surface,BLOCK1:ZONE3_PARTITION_7_0_0,Wall,,CTF - ConductionTransferFunction,GBXML R-O METAL FRAME WALL - AIMO779,3.360,2.236,,4.00,4.00,4.00,180.00,90.00,1.48,2.70,0.00,BLOCK1:ZONE4_PARTITION_3_0_10008,Other/Same Surface Int Conv,ASHRAETARP,NoSun,NoWind,0.00,0.50,0.50,0.50,4
HeatTransfer Surface,BLOCK1:ZONE3_GROUNDFLOOR_0_0_0,Floor,,CTF - ConductionTransferFunction,GBXML PASSIVE FLOOR NO INSULATION CARPET OR HARDWOOD - AIMO795,2.362,1.501,,2.13,2.13,2.13,0.00,180.00,1.48,1.44,0.00,Ground,N/A-Ground,ASHRAETARP,NoSun,NoWind,1.00,0.00,1.00,0.00,4
HeatTransfer Surface,BLOCK1:ZONE3_GROUNDFLOOR_0_0_1,Floor,,CTF - ConductionTransferFunction,GBXML PASSIVE FLOOR NO INSULATION CARPET OR HARDWOOD - AIMO795,2.362,1.501,,1.82,1.82,1.82,0.00,180.00,1.02,1.78,0.00,Ground,N/A-Ground,ASHRAETARP,NoSun,NoWind,1.00,0.00,1.00,0.00,4
HeatTransfer Surface,BLOCK1:ZONE3_ROOF_1_0_0,Roof,,CTF - ConductionTransferFunction,GBXML R-O WOOD OR STEEL FRAME ROOF - AIMO82O,3.927,2.257,,0.35,0.35,0.35,180.00,0.00,1.02,0.34,0.00,ExternalEnvironment,DOE-2,ASHRAETARP,SunExposed,WindExposed,0.00,1.00,1.00,0.00,4
HeatTransfer Surface,BLOCK1:ZONE3_ROOF_1_0_1,Roof,,CTF - ConductionTransferFunction,GBXML R-O WOOD OR STEEL FRAME ROOF - AIMO82O,3.927,2.257,,3.60,3.60,3.60,180.00,0.00,2.50,1.44,0.00,ExternalEnvironment,DOE-2,ASHRAETARP,SunExposed,WindExposed,0.00,1.00,1.00,3.97E-009,4
Zone Surfaces,BLOCK1:ZONE5,21
HeatTransfer Surface,BLOCK1:ZONE5_PARTITION_6_0_10003,Wall,,CTF - ConductionTransferFunction,GBXML R-O METAL FRAME WALL - AIMO779_REV,3.360,2.236,,1.94,5.45,1.94,270.00,90.00,2.02,2.70,0.00,BLOCK1:ZONE1_PARTITION_6_0_0,Other/Same Surface Int Conv,ASHRAETARP,NoSun,NoWind,0.00,0.50,0.50,0.50,4
HeatTransfer Surface,BLOCK1:ZONE5_PARTITION_6_0_0_0_0_0_WIN_10005,Window,BLOCK1:ZONE5_PARTITION_6_0_10003,Window5 Detailed Fenestration,1001,N/A,2.860,No,3.51,3.51,3.51,270.00,90.00,1.80,1.96,0.00,BLOCK1:ZONE1_PARTITION_6_0_0_0_0_0_WIN,Other/Same Surface Int Conv,ASHRAETARP,NoSun,NoWind,0.00,0.50,0.50,0.50,4
Frame/Divider Surface,1,Frame,BLOCK1:ZONE5_PARTITION_6_0_0_0_0_0_WIN_10005,Window5 Detailed Fenestration,,N/A,N/A,,0.00,0.00,*,N/A,N/A,4.00E-002,N/A
Frame/Divider Surface,1,Divider:DividedLite,BLOCK1:ZONE5_PARTITION_6_0_0_0_0_0_WIN_10005,,,N/A,N/A,,0.00,0.00,*,N/A,N/A,2.00E-002,N/A
HeatTransfer Surface,BLOCK1:ZONE5_PARTITION_5_0_10005,Wall,,CTF - ConductionTransferFunction,GBXML R-O METAL FRAME WALL - AIMO779_REV,3.360,2.236,,1.07,2.75,1.07,0.00,90.00,1.02,2.70,0.00,BLOCK1:ZONE3_PARTITION_5_0_0,Other/Same Surface Int Conv,ASHRAETARP,NoSun,NoWind,0.00,0.50,0.50,0.50,4
HeatTransfer Surface,BLOCK1:ZONE5_PARTITION_5_0_0_0_0_0_DOOR_10007,Door,BLOCK1:ZONE5_PARTITION_5_0_10005,CTF - ConductionTransferFunction,GBXML WOODEN - AIMO842_REV,3.989,3.989,,1.68,1.68,1.68,0.00,90.00,0.83,2.01,0.00,BLOCK1:ZONE3_PARTITION_5_0_0_0_0_0_DOOR,Other/Same Surface Int Conv,ASHRAETARP,NoSun,NoWind,0.00,0.50,0.50,0.50,4
HeatTransfer Surface,BLOCK1:ZONE5_WALL_2_0_0,Wall,,CTF - ConductionTransferFunction,GBXML R-O 8 IN CMU WALL - AIMO8O8,6.453,3.282,,1.57,3.46,1.57,90.00,90.00,1.28,2.70,0.00,ExternalEnvironment,DOE-2,ASHRAETARP,SunExposed,WindExposed,0.50,0.50,0.96,4.10E-002,4
HeatTransfer Surface,BLOCK1:ZONE5_WALL_2_0_0_0_0_0_DOOR,Door,BLOCK1:ZONE5_WALL_2_0_0,CTF - ConductionTransferFunction,GBXML WOODEN - AIMO842,3.989,3.989,,1.89,1.89,1.89,90.00,90.00,0.94,2.02,0.00,ExternalEnvironment,DOE-2,ASHRAETARP,SunExposed,WindExposed,0.50,0.50,0.95,5.41E-002,4
HeatTransfer Surface,BLOCK1:ZONE5_PARTITION_3_0_0,Wall,,CTF - ConductionTransferFunction,GBXML R-O METAL FRAME WALL - AIMO779,3.360,2.236,,4.00,4.00,4.00,0.00,90.00,1.48,2.70,0.00,BLOCK1:ZONE4_PARTITION_6_0_10009,Other/Same Surface Int Conv,ASHRAETARP,NoSun,NoWind,0.00,0.50,0.50,0.50,4
HeatTransfer Surface,BLOCK1:ZONE5_PARTITION_4_0_0,Wall,,CTF - ConductionTransferFunction,GBXML R-O METAL FRAME WALL - AIMO779,3.360,2.236,,0.78,2.00,0.78,90.00,90.00,0.74,2.70,0.00,BLOCK1:ZONE4_PARTITION_5_0_10010,Other/Same Surface Int Conv,ASHRAETARP,NoSun,NoWind,0.00,0.50,0.50,0.50,4
HeatTransfer Surface,BLOCK1:ZONE5_PARTITION_4_0_0_0_0_0_DOOR,Door,BLOCK1:ZONE5_PARTITION_4_0_0,CTF - ConductionTransferFunction,GBXML WOODEN - AIMO842,3.989,3.989,,1.22,1.22,1.22,90.00,90.00,0.60,2.01,0.00,BLOCK1:ZONE4_PARTITION_5_0_0_0_0_0_DOOR_10012,Other/Same Surface Int Conv,ASHRAETARP,NoSun,NoWind,0.00,0.50,0.50,0.50,4
HeatTransfer Surface,BLOCK1:ZONE5_PARTITION_7_0_0,Wall,,CTF - ConductionTransferFunction,GBXML R-O METAL FRAME WALL - AIMO779,3.360,2.236,,4.86,8.37,4.86,270.00,90.00,3.10,2.70,0.00,BLOCK1:ZONE2_PARTITION_2_0_10012,Other/Same Surface Int Conv,ASHRAETARP,NoSun,NoWind,0.00,0.50,0.50,0.50,4
HeatTransfer Surface,BLOCK1:ZONE5_PARTITION_7_0_0_0_0_0_WIN,Window,BLOCK1:ZONE5_PARTITION_7_0_0,Window5 Detailed Fenestration,1001,N/A,2.860,No,3.51,3.51,3.51,270.00,90.00,1.80,1.96,0.00,BLOCK1:ZONE2_PARTITION_2_0_0_0_0_0_WIN_10014,Other/Same Surface Int Conv,ASHRAETARP,NoSun,NoWind,0.00,0.50,0.50,0.50,4
Frame/Divider Surface,1,Frame,BLOCK1:ZONE5_PARTITION_7_0_0_0_0_0_WIN,Window5 Detailed Fenestration,,N/A,N/A,,0.00,0.00,*,N/A,N/A,4.00E-002,N/A
Frame/Divider Surface,1,Divider:DividedLite,BLOCK1:ZONE5_PARTITION_7_0_0_0_0_0_WIN,,,N/A,N/A,,0.00,0.00,*,N/A,N/A,2.00E-002,N/A
HeatTransfer Surface,BLOCK1:ZONE5_WALL_8_0_0,Wall,,CTF - ConductionTransferFunction,GBXML R-O 8 IN CMU WALL - AIMO8O8,6.453,3.282,,6.90,10.72,7.21,180.00,90.00,3.97,2.70,0.00,ExternalEnvironment,DOE-2,ASHRAETARP,SunExposed,WindExposed,0.50,0.50,0.74,0.26,4
HeatTransfer Surface,BLOCK1:ZONE5_WALL_8_0_0_0_0_0_WIN,Window,BLOCK1:ZONE5_WALL_8_0_0,Window5 Detailed Fenestration,1001,N/A,2.860,No,3.44,3.51,3.51,180.00,90.00,1.80,1.96,0.00,ExternalEnvironment,DOE-2,ASHRAETARP,SunExposed,WindExposed,0.50,0.50,0.64,0.36,4
Frame/Divider Surface,1,Frame,BLOCK1:ZONE5_WALL_8_0_0_0_0_0_WIN,Window5 Detailed Fenestration,,N/A,N/A,,0.31,0.31,*,N/A,N/A,4.00E-002,N/A
Frame/Divider Surface,1,Divider:DividedLite,BLOCK1:ZONE5_WALL_8_0_0_0_0_0_WIN,,,N/A,N/A,,7.46E-002,7.46E-002,*,N/A,N/A,2.00E-002,N/A
HeatTransfer Surface,BLOCK1:ZONE5_PARTITION_9_0_0,Wall,,CTF - ConductionTransferFunction,GBXML R-O METAL FRAME WALL - AIMO779,3.360,2.236,,8.37,8.37,8.37,90.00,90.00,3.10,2.70,0.00,BLOCK1:ZONE5_PARTITION_9_0_0,Other/Same Surface Int Conv,ASHRAETARP,NoSun,NoWind,0.00,0.50,0.50,0.50,4
HeatTransfer Surface,BLOCK1:ZONE5_WALL_10_0_0,Wall,,CTF - ConductionTransferFunction,GBXML R-O 8 IN CMU WALL - AIMO8O8,6.453,3.282,,3.97,3.97,3.97,0.00,90.00,1.47,2.70,0.00,ExternalEnvironment,DOE-2,ASHRAETARP,SunExposed,WindExposed,0.50,0.50,0.89,0.11,4
HeatTransfer Surface,BLOCK1:ZONE5_GROUNDFLOOR_0_0_0,Floor,,CTF - ConductionTransferFunction,GBXML PASSIVE FLOOR NO INSULATION CARPET OR HARDWOOD - AIMO795,2.362,1.501,,0.75,0.75,0.75,0.00,180.00,1.02,0.74,0.00,Ground,N/A-Ground,ASHRAETARP,NoSun,NoWind,1.00,0.00,1.00,0.00,4
HeatTransfer Surface,BLOCK1:ZONE5_GROUNDFLOOR_0_0_1,Floor,,CTF - ConductionTransferFunction,GBXML PASSIVE FLOOR NO INSULATION CARPET OR HARDWOOD - AIMO795,2.362,1.501,,3.20,3.20,3.20,0.00,180.00,2.50,1.28,0.00,Ground,N/A-Ground,ASHRAETARP,NoSun,NoWind,1.00,0.00,1.00,0.00,4
HeatTransfer Surface,BLOCK1:ZONE5_GROUNDFLOOR_0_0_2,Floor,,CTF - ConductionTransferFunction,GBXML PASSIVE FLOOR NO INSULATION CARPET OR HARDWOOD - AIMO795,2.362,1.501,,12.31,12.31,12.31,0.00,180.00,3.97,3.10,0.00,Ground,N/A-Ground,ASHRAETARP,NoSun,NoWind,1.00,0.00,1.00,0.00,4
HeatTransfer Surface,BLOCK1:ZONE5_ROOF_1_0_0,Roof,,CTF - ConductionTransferFunction,GBXML R-O WOOD OR STEEL FRAME ROOF - AIMO82O,3.927,2.257,,4.56,4.56,4.56,180.00,0.00,1.47,3.10,0.00,ExternalEnvironment,DOE-2,ASHRAETARP,SunExposed,WindExposed,0.00,1.00,1.00,2.00E-008,4
HeatTransfer Surface,BLOCK1:ZONE5_ROOF_1_0_1,Roof,,CTF - ConductionTransferFunction,GBXML R-O WOOD OR STEEL FRAME ROOF - AIMO82O,3.927,2.257,,6.48,6.48,6.48,180.00,0.00,1.48,4.38,0.00,ExternalEnvironment,DOE-2,ASHRAETARP,SunExposed,WindExposed,0.00,1.00,1.00,3.72E-009,4
HeatTransfer Surface,BLOCK1:ZONE5_ROOF_1_0_2,Roof,,CTF - ConductionTransferFunction,GBXML R-O WOOD OR STEEL FRAME ROOF - AIMO82O,3.927,2.257,,5.22,5.22,5.22,180.00,0.00,1.02,5.12,0.00,ExternalEnvironment,DOE-2,ASHRAETARP,SunExposed,WindExposed,0.00,1.00,1.00,2.15E-009,4
Zone Surfaces,BLOCK1:ZONE2,9
HeatTransfer Surface,BLOCK1:ZONE2_PARTITION_3_0_10001,Wall,,CTF - ConductionTransferFunction,GBXML R-O METAL FRAME WALL - AIMO779_REV,3.360,2.236,,8.50,12.02,8.50,0.00,90.00,4.45,2.70,0.00,BLOCK1:ZONE1_PARTITION_5_0_0,Other/Same Surface Int Conv,ASHRAETARP,NoSun,NoWind,0.00,0.50,0.50,0.50,4
HeatTransfer Surface,BLOCK1:ZONE2_PARTITION_3_0_0_0_0_0_WIN_10003,Window,BLOCK1:ZONE2_PARTITION_3_0_10001,Window5 Detailed Fenestration,1001,N/A,2.860,No,3.51,3.51,3.51,0.00,90.00,1.80,1.96,0.00,BLOCK1:ZONE1_PARTITION_5_0_0_0_0_0_WIN,Other/Same Surface Int Conv,ASHRAETARP,NoSun,NoWind,0.00,0.50,0.50,0.50,4
Frame/Divider Surface,1,Frame,BLOCK1:ZONE2_PARTITION_3_0_0_0_0_0_WIN_10003,Window5 Detailed Fenestration,,N/A,N/A,,0.00,0.00,*,N/A,N/A,4.00E-002,N/A
Frame/Divider Surface,1,Divider:DividedLite,BLOCK1:ZONE2_PARTITION_3_0_0_0_0_0_WIN_10003,,,N/A,N/A,,0.00,0.00,*,N/A,N/A,2.00E-002,N/A
HeatTransfer Surface,BLOCK1:ZONE2_PARTITION_2_0_10012,Wall,,CTF - ConductionTransferFunction,GBXML R-O METAL FRAME WALL - AIMO779_REV,3.360,2.236,,4.86,8.37,4.86,90.00,90.00,3.10,2.70,0.00,BLOCK1:ZONE5_PARTITION_7_0_0,Other/Same Surface Int Conv,ASHRAETARP,NoSun,NoWind,0.00,0.50,0.50,0.50,4
HeatTransfer Surface,BLOCK1:ZONE2_PARTITION_2_0_0_0_0_0_WIN_10014,Window,BLOCK1:ZONE2_PARTITION_2_0_10012,Window5 Detailed Fenestration,1001,N/A,2.860,No,3.51,3.51,3.51,90.00,90.00,1.80,1.96,0.00,BLOCK1:ZONE5_PARTITION_7_0_0_0_0_0_WIN,Other/Same Surface Int Conv,ASHRAETARP,NoSun,NoWind,0.00,0.50,0.50,0.50,4
Frame/Divider Surface,1,Frame,BLOCK1:ZONE2_PARTITION_2_0_0_0_0_0_WIN_10014,Window5 Detailed Fenestration,,N/A,N/A,,0.00,0.00,*,N/A,N/A,4.00E-002,N/A
Frame/Divider Surface,1,Divider:DividedLite,BLOCK1:ZONE2_PARTITION_2_0_0_0_0_0_WIN_10014,,,N/A,N/A,,0.00,0.00,*,N/A,N/A,2.00E-002,N/A
HeatTransfer Surface,BLOCK1:ZONE2_WALL_4_0_0,Wall,,CTF - ConductionTransferFunction,GBXML R-O 8 IN CMU WALL - AIMO8O8,6.453,3.282,,8.37,8.37,8.37,270.00,90.00,3.10,2.70,0.00,ExternalEnvironment,DOE-2,ASHRAETARP,SunExposed,WindExposed,0.50,0.50,0.52,0.48,4
HeatTransfer Surface,BLOCK1:ZONE2_WALL_5_0_0,Wall,,CTF - ConductionTransferFunction,GBXML R-O 8 IN CMU WALL - AIMO8O8,6.453,3.282,,8.20,12.02,8.50,180.00,90.00,4.45,2.70,0.00,ExternalEnvironment,DOE-2,ASHRAETARP,SunExposed,WindExposed,0.50,0.50,0.84,0.16,4
HeatTransfer Surface,BLOCK1:ZONE2_WALL_5_0_0_0_0_0_WIN,Window,BLOCK1:ZONE2_WALL_5_0_0,Window5 Detailed Fenestration,1001,N/A,2.860,No,3.44,3.51,3.51,180.00,90.00,1.80,1.96,0.00,ExternalEnvironment,DOE-2,ASHRAETARP,SunExposed,WindExposed,0.50,0.50,0.69,0.31,4
Frame/Divider Surface,1,Frame,BLOCK1:ZONE2_WALL_5_0_0_0_0_0_WIN,Window5 Detailed Fenestration,,N/A,N/A,,0.31,0.31,*,N/A,N/A,4.00E-002,N/A
Frame/Divider Surface,1,Divider:DividedLite,BLOCK1:ZONE2_WALL_5_0_0_0_0_0_WIN,,,N/A,N/A,,7.46E-002,7.46E-002,*,N/A,N/A,2.00E-002,N/A
HeatTransfer Surface,BLOCK1:ZONE2_GROUNDFLOOR_0_0_0,Floor,,CTF - ConductionTransferFunction,GBXML PASSIVE FLOOR NO INSULATION CARPET OR HARDWOOD - AIMO795,2.362,1.501,,13.80,13.80,13.80,0.00,180.00,4.45,3.10,0.00,Ground,N/A-Ground,ASHRAETARP,NoSun,NoWind,1.00,0.00,1.00,0.00,4
HeatTransfer Surface,BLOCK1:ZONE2_ROOF_1_0_0,Roof,,CTF - ConductionTransferFunction,GBXML R-O WOOD OR STEEL FRAME ROOF - AIMO82O,3.927,2.257,,13.80,13.80,13.80,180.00,0.00,4.45,3.10,0.00,ExternalEnvironment,DOE-2,ASHRAETARP,SunExposed,WindExposed,0.00,1.00,1.00,1.16E-008,4
Zone Surfaces,BLOCK1:ZONE4,8
HeatTransfer Surface,BLOCK1:ZONE4_PARTITION_4_0_10007,Wall,,CTF - ConductionTransferFunction,GBXML R-O METAL FRAME WALL - AIMO779_REV,3.360,2.236,,0.92,0.92,0.92,270.00,90.00,0.34,2.70,0.00,BLOCK1:ZONE3_PARTITION_6_0_0,Other/Same Surface Int Conv,ASHRAETARP,NoSun,NoWind,0.00,0.50,0.50,0.50,4
HeatTransfer Surface,BLOCK1:ZONE4_PARTITION_3_0_10008,Wall,,CTF - ConductionTransferFunction,GBXML R-O METAL FRAME WALL - AIMO779_REV,3.360,2.236,,4.00,4.00,4.00,0.00,90.00,1.48,2.70,0.00,BLOCK1:ZONE3_PARTITION_7_0_0,Other/Same Surface Int Conv,ASHRAETARP,NoSun,NoWind,0.00,0.50,0.50,0.50,4
HeatTransfer Surface,BLOCK1:ZONE4_PARTITION_6_0_10009,Wall,,CTF - ConductionTransferFunction,GBXML R-O METAL FRAME WALL - AIMO779_REV,3.360,2.236,,4.00,4.00,4.00,180.00,90.00,1.48,2.70,0.00,BLOCK1:ZONE5_PARTITION_3_0_0,Other/Same Surface Int Conv,ASHRAETARP,NoSun,NoWind,0.00,0.50,0.50,0.50,4
HeatTransfer Surface,BLOCK1:ZONE4_PARTITION_5_0_10010,Wall,,CTF - ConductionTransferFunction,GBXML R-O METAL FRAME WALL - AIMO779_REV,3.360,2.236,,0.78,2.00,0.78,270.00,90.00,0.74,2.70,0.00,BLOCK1:ZONE5_PARTITION_4_0_0,Other/Same Surface Int Conv,ASHRAETARP,NoSun,NoWind,0.00,0.50,0.50,0.50,4
HeatTransfer Surface,BLOCK1:ZONE4_PARTITION_5_0_0_0_0_0_DOOR_10012,Door,BLOCK1:ZONE4_PARTITION_5_0_10010,CTF - ConductionTransferFunction,GBXML WOODEN - AIMO842_REV,3.989,3.989,,1.22,1.22,1.22,270.00,90.00,0.60,2.01,0.00,BLOCK1:ZONE5_PARTITION_4_0_0_0_0_0_DOOR,Other/Same Surface Int Conv,ASHRAETARP,NoSun,NoWind,0.00,0.50,0.50,0.50,4
HeatTransfer Surface,BLOCK1:ZONE4_WALL_2_0_0,Wall,,CTF - ConductionTransferFunction,GBXML R-O 8 IN CMU WALL - AIMO8O8,6.453,3.282,,2.92,2.92,2.92,90.00,90.00,1.08,2.70,0.00,ExternalEnvironment,DOE-2,ASHRAETARP,SunExposed,WindExposed,0.50,0.50,0.88,0.12,4
HeatTransfer Surface,BLOCK1:ZONE4_GROUNDFLOOR_0_0_0,Floor,,CTF - ConductionTransferFunction,GBXML PASSIVE FLOOR NO INSULATION CARPET OR HARDWOOD - AIMO795,2.362,1.501,,1.60,1.60,1.60,0.00,180.00,1.48,1.08,0.00,Ground,N/A-Ground,ASHRAETARP,NoSun,NoWind,1.00,0.00,1.00,0.00,4
HeatTransfer Surface,BLOCK1:ZONE4_ROOF_1_0_0,Roof,,CTF - ConductionTransferFunction,GBXML R-O WOOD OR STEEL FRAME ROOF - AIMO82O,3.927,2.257,,1.60,1.60,1.60,180.00,0.00,1.48,1.08,0.00,ExternalEnvironment,DOE-2,ASHRAETARP,SunExposed,WindExposed,0.00,1.00,1.00,7.69E-010,4
! <Environment>,Environment Name,Environment Type, Start Date, End Date, Start DayOfWeek, Duration {#days}, Source:Start DayOfWeek,  Use Daylight Saving, Use Holidays, Apply Weekend Holiday Rule,  Use Rain Values, Use Snow Values, Sky Temperature Model
! <Environment:Special Days>, Special Day Name, Special Day Type, Source, Start Date, Duration {#days}
! <Environment:Daylight Saving>, Daylight Saving Indicator, Source, Start Date, End Date
! <Environment:WarmupDays>, NumberofWarmupDays
Environment,UNTITLED (O1-O1:31-12),WeatherFileRunPeriod,01/01/2017,12/31/2017,Sunday,365,Use RunPeriod Specified Day,No,No,Yes,Yes,Yes,Clark and Allen
Environment:Daylight Saving,Yes,InputFile,03/26,10/29
Environment:WarmupDays,  6
! <Warmup Convergence Information>,Zone Name,Environment Type/Name,Average Warmup Temperature Difference {deltaC},Std Dev Warmup Temperature Difference {deltaC},Max Temperature Pass/Fail Convergence,Min Temperature Pass/Fail Convergence,Average Warmup Load Difference {W},Std Dev Warmup Load Difference {W},Heating Load Pass/Fail Convergence,Cooling Load Pass/Fail Convergence
 Warmup Convergence Information,BLOCK1:ZONE1,RunPeriod: UNTITLED (O1-O1:31-12),0.1523444399,8.8519043081E-002,Pass,Pass,0.6726393961,1.0723706794,Pass,Pass
 Warmup Convergence Information,BLOCK1:ZONE3,RunPeriod: UNTITLED (O1-O1:31-12),0.1325215144,0.1006000108,Pass,Pass,0.7693677297,1.6505372369,Pass,Pass
 Warmup Convergence Information,BLOCK1:ZONE5,RunPeriod: UNTITLED (O1-O1:31-12),0.2502657067,0.1768914792,Pass,Pass,3.1620397968,18.8870010292,Pass,Pass
 Warmup Convergence Information,BLOCK1:ZONE2,RunPeriod: UNTITLED (O1-O1:31-12),0.2273880543,0.1603880187,Pass,Pass,1.9052723840,9.5467355280,Pass,Pass
 Warmup Convergence Information,BLOCK1:ZONE4,RunPeriod: UNTITLED (O1-O1:31-12),0.2123278649,0.1598442789,Pass,Pass,0.7043551503,1.6747800632,Pass,Pass
! <Program Control Information:Threads/Parallel Sims>, Threading Supported,Maximum Number of Threads, Env Set Threads (OMP_NUM_THREADS), EP Env Set Threads (EP_OMP_NUM_THREADS), IDF Set Threads, Number of Threads Used (Interior Radiant Exchange), Number Nominal Surfaces, Number Parallel Sims
Program Control:Threads/Parallel Sims, No,1, N/A, N/A, N/A, N/A, N/A, N/A
End of Data
