Program Version,EnergyPlus, Version 9.6.0-f420c06a69, YMD=2022.04.20 16:29,
   ** Warning ** Timestep: Requested number (2) is less than the suggested minimum of 4.
   **   ~~~   ** Please see entry for Timestep in Input/Output Reference for discussion of considerations.
   ************* Beginning Zone Sizing Calculations
   ** Warning ** Weather file location will be used rather than entered (IDF) Location object.
   **   ~~~   ** ..Location object=UNTITLED (O1-O1:31-12)  (01-01:31-12)
   **   ~~~   ** ..Weather File Location=Asahikawa JA - MN8 WMO#=0
   **   ~~~   ** ..due to location differences, Latitude difference=[3.32] degrees, Longitude difference=[145.93] degrees.
   **   ~~~   ** ..Time Zone difference=[8.0] hour(s), Elevation difference=[79.04] percent, [460.00] meters.
   ** Warning ** GetSurfaceData: Entered Zone Floor Areas differ from calculated Zone Floor Area(s).
   **   ~~~   ** ...use Output:Diagnostics,DisplayExtraWarnings; to show more details on individual zones.
   ** Warning ** CalcSurfaceCentroid: 26 Surfaces have the Z coordinate < 0.
   **   ~~~   ** ...in any calculations, Wind Speed will be 0.0 for these surfaces.
   **   ~~~   ** ...in any calculations, Outside temperatures will be the outside temperature + 9.750E-003 for these surfaces.
   **   ~~~   ** ...that is, these surfaces will have conditions as though at ground level.
   ************* Note that the following warning(s) may/will occur if you have not enclosed your zone completely.
   ** Warning ** Entered Zone Volumes differ from calculated zone volume(s).
   **   ~~~   ** ...use Output:Diagnostics,DisplayExtraWarnings; to show more details on individual zones.
   ** Warning ** CalculateZoneVolume: 1 zone is not fully enclosed. For more details use:  Output:Diagnostics,DisplayExtrawarnings; 
   ** Warning ** CheckUsedConstructions: There are 9 nominally unused constructions in input.
   **   ~~~   ** For explicit details on each unused construction, use Output:Diagnostics,DisplayExtraWarnings;
   ** Warning ** DeterminePolygonOverlap: Too many figures [>15000]  detected in an overlap calculation. Use Output:Diagnostics,DisplayExtraWarnings; for more details.
   ** Severe  ** UpdateZoneSizing: Cooling supply air temperature (calculated) within 2C of zone temperature
   **   ~~~   ** ...check zone thermostat set point and design supply air temperatures
   **   ~~~   ** ...zone name = BLOCK1:ZONE1
   **   ~~~   ** ...design sensible cooling load = 544.29 W
   **   ~~~   ** ...thermostat set point temp    = 0.000 C
   **   ~~~   ** ...zone temperature             = 19.200 C
   **   ~~~   ** ...supply air temperature       = 18.700 C
   **   ~~~   ** ...temperature difference       = -0.50000 C
   **   ~~~   ** ...calculated volume flow rate  = 0.89773 m3/s
   **   ~~~   ** ...calculated mass flow rate    = 1.06559 kg/s
   ** Severe  ** UpdateZoneSizing: Heating supply air temperature (calculated) within 2C of zone temperature
   **   ~~~   ** ...check zone thermostat set point and design supply air temperatures
   **   ~~~   ** ...zone name = BLOCK1:ZONE1
   **   ~~~   ** ...design heating load         = 777.93 W
   **   ~~~   ** ...thermostat set point temp   = 14.400 C
   **   ~~~   ** ...zone temperature            = 14.400 C
   **   ~~~   ** ...supply air temperature      = 14.900 C
   **   ~~~   ** ...temperature difference      = 0.50000 C
   **   ~~~   ** ...calculated volume flow rate = 1.29487 m3/s
   **   ~~~   ** ...calculated mass flow rate   = 1.53699 kg/s
   ** Severe  ** UpdateZoneSizing: Cooling supply air temperature (calculated) within 2C of zone temperature
   **   ~~~   ** ...check zone thermostat set point and design supply air temperatures
   **   ~~~   ** ...zone name = BLOCK1:ZONE3
   **   ~~~   ** ...design sensible cooling load = 385.31 W
   **   ~~~   ** ...thermostat set point temp    = 0.000 C
   **   ~~~   ** ...zone temperature             = 19.200 C
   **   ~~~   ** ...supply air temperature       = 18.700 C
   **   ~~~   ** ...temperature difference       = -0.50000 C
   **   ~~~   ** ...calculated volume flow rate  = 0.63551 m3/s
   **   ~~~   ** ...calculated mass flow rate    = 0.75435 kg/s
   ** Severe  ** UpdateZoneSizing: Heating supply air temperature (calculated) within 2C of zone temperature
   **   ~~~   ** ...check zone thermostat set point and design supply air temperatures
   **   ~~~   ** ...zone name = BLOCK1:ZONE3
   **   ~~~   ** ...design heating load         = 570.79 W
   **   ~~~   ** ...thermostat set point temp   = 14.400 C
   **   ~~~   ** ...zone temperature            = 14.400 C
   **   ~~~   ** ...supply air temperature      = 14.900 C
   **   ~~~   ** ...temperature difference      = 0.50000 C
   **   ~~~   ** ...calculated volume flow rate = 0.95007 m3/s
   **   ~~~   ** ...calculated mass flow rate   = 1.12773 kg/s
   ** Severe  ** UpdateZoneSizing: Cooling supply air temperature (calculated) within 2C of zone temperature
   **   ~~~   ** ...check zone thermostat set point and design supply air temperatures
   **   ~~~   ** ...zone name = BLOCK1:ZONE5
   **   ~~~   ** ...design sensible cooling load = 9606.60 W
   **   ~~~   ** ...thermostat set point temp    = 0.000 C
   **   ~~~   ** ...zone temperature             = 19.200 C
   **   ~~~   ** ...supply air temperature       = 18.700 C
   **   ~~~   ** ...temperature difference       = -0.50000 C
   **   ~~~   ** ...calculated volume flow rate  = 15.84470 m3/s
   **   ~~~   ** ...calculated mass flow rate    = 18.80751 kg/s
   ** Severe  ** UpdateZoneSizing: Heating supply air temperature (calculated) within 2C of zone temperature
   **   ~~~   ** ...check zone thermostat set point and design supply air temperatures
   **   ~~~   ** ...zone name = BLOCK1:ZONE5
   **   ~~~   ** ...design heating load         = 10215.96 W
   **   ~~~   ** ...thermostat set point temp   = 14.400 C
   **   ~~~   ** ...zone temperature            = 14.400 C
   **   ~~~   ** ...supply air temperature      = 14.900 C
   **   ~~~   ** ...temperature difference      = 0.50000 C
   **   ~~~   ** ...calculated volume flow rate = 17.00446 m3/s
   **   ~~~   ** ...calculated mass flow rate   = 20.18414 kg/s
   ** Severe  ** UpdateZoneSizing: Cooling supply air temperature (calculated) within 2C of zone temperature
   **   ~~~   ** ...check zone thermostat set point and design supply air temperatures
   **   ~~~   ** ...zone name = BLOCK1:ZONE2
   **   ~~~   ** ...design sensible cooling load = 632.73 W
   **   ~~~   ** ...thermostat set point temp    = 0.000 C
   **   ~~~   ** ...zone temperature             = 19.200 C
   **   ~~~   ** ...supply air temperature       = 18.700 C
   **   ~~~   ** ...temperature difference       = -0.50000 C
   **   ~~~   ** ...calculated volume flow rate  = 1.04360 m3/s
   **   ~~~   ** ...calculated mass flow rate    = 1.23874 kg/s
   ** Severe  ** UpdateZoneSizing: Heating supply air temperature (calculated) within 2C of zone temperature
   **   ~~~   ** ...check zone thermostat set point and design supply air temperatures
   **   ~~~   ** ...zone name = BLOCK1:ZONE2
   **   ~~~   ** ...design heating load         = 581.24 W
   **   ~~~   ** ...thermostat set point temp   = 14.400 C
   **   ~~~   ** ...zone temperature            = 14.400 C
   **   ~~~   ** ...supply air temperature      = 14.900 C
   **   ~~~   ** ...temperature difference      = 0.50000 C
   **   ~~~   ** ...calculated volume flow rate = 0.96748 m3/s
   **   ~~~   ** ...calculated mass flow rate   = 1.14839 kg/s
   ** Severe  ** UpdateZoneSizing: Cooling supply air temperature (calculated) within 2C of zone temperature
   **   ~~~   ** ...check zone thermostat set point and design supply air temperatures
   **   ~~~   ** ...zone name = BLOCK1:ZONE4
   **   ~~~   ** ...design sensible cooling load = 124.84 W
   **   ~~~   ** ...thermostat set point temp    = 0.000 C
   **   ~~~   ** ...zone temperature             = 19.200 C
   **   ~~~   ** ...supply air temperature       = 18.700 C
   **   ~~~   ** ...temperature difference       = -0.50000 C
   **   ~~~   ** ...calculated volume flow rate  = 0.20590 m3/s
   **   ~~~   ** ...calculated mass flow rate    = 0.24440 kg/s
   ** Severe  ** UpdateZoneSizing: Heating supply air temperature (calculated) within 2C of zone temperature
   **   ~~~   ** ...check zone thermostat set point and design supply air temperatures
   **   ~~~   ** ...zone name = BLOCK1:ZONE4
   **   ~~~   ** ...design heating load         = 163.16 W
   **   ~~~   ** ...thermostat set point temp   = 14.400 C
   **   ~~~   ** ...zone temperature            = 14.400 C
   **   ~~~   ** ...supply air temperature      = 14.900 C
   **   ~~~   ** ...temperature difference      = 0.50000 C
   **   ~~~   ** ...calculated volume flow rate = 0.27158 m3/s
   **   ~~~   ** ...calculated mass flow rate   = 0.32236 kg/s
   ** Warning ** GetVRFInput: AirConditioner:VariableRefrigerantFlow="VRF OUTDOOR UNIT_BLOCK1:ZONE1" curve values
   **   ~~~   ** ... Cooling Capacity Ratio Modifier Function of Low Temperature Curve Name = VRFCOOLCAPFT output is not equal to 1.0 (+ or - 10%) at rated conditions.
   **   ~~~   ** ... Curve output at rated conditions = 1.136
   ** Warning ** AirConditioner:VariableRefrigerantFlow = "VRF OUTDOOR UNIT_BLOCK1:ZONE1", Minimum Condenser Inlet Node Temperature in Heat Recovery Mode is less than the minimum temperature in heat pump mode.
   **   ~~~   ** ...Minimum Condenser Inlet Node Temperature in Heat Recovery Mode = -9.99 C
   **   ~~~   ** ...Minimum Outdoor Temperature in Cooling Mode = -5.99 C
   **   ~~~   ** ...Minimum Outdoor Temperature in Heating Mode = -19.99 C
   **   ~~~   ** ...Minimum Outdoor Temperature in Heat Recovery Mode reset to greater of cooling or heating minimum temperature and simulation continues.
   **   ~~~   ** ... adjusted Minimum Condenser Inlet Node Temperature in Heat Recovery Mode = -5.99 C
   ** Warning ** GetVRFInput: AirConditioner:VariableRefrigerantFlow="VRF OUTDOOR UNIT_BLOCK1:ZONE3" curve values
   **   ~~~   ** ... Cooling Capacity Ratio Modifier Function of Low Temperature Curve Name = VRFCOOLCAPFT output is not equal to 1.0 (+ or - 10%) at rated conditions.
   **   ~~~   ** ... Curve output at rated conditions = 1.136
   ** Warning ** AirConditioner:VariableRefrigerantFlow = "VRF OUTDOOR UNIT_BLOCK1:ZONE3", Minimum Condenser Inlet Node Temperature in Heat Recovery Mode is less than the minimum temperature in heat pump mode.
   **   ~~~   ** ...Minimum Condenser Inlet Node Temperature in Heat Recovery Mode = -9.99 C
   **   ~~~   ** ...Minimum Outdoor Temperature in Cooling Mode = -5.99 C
   **   ~~~   ** ...Minimum Outdoor Temperature in Heating Mode = -19.99 C
   **   ~~~   ** ...Minimum Outdoor Temperature in Heat Recovery Mode reset to greater of cooling or heating minimum temperature and simulation continues.
   **   ~~~   ** ... adjusted Minimum Condenser Inlet Node Temperature in Heat Recovery Mode = -5.99 C
   ** Warning ** GetVRFInput: AirConditioner:VariableRefrigerantFlow="VRF OUTDOOR UNIT_BLOCK1:ZONE5" curve values
   **   ~~~   ** ... Cooling Capacity Ratio Modifier Function of Low Temperature Curve Name = VRFCOOLCAPFT output is not equal to 1.0 (+ or - 10%) at rated conditions.
   **   ~~~   ** ... Curve output at rated conditions = 1.136
   ** Warning ** AirConditioner:VariableRefrigerantFlow = "VRF OUTDOOR UNIT_BLOCK1:ZONE5", Minimum Condenser Inlet Node Temperature in Heat Recovery Mode is less than the minimum temperature in heat pump mode.
   **   ~~~   ** ...Minimum Condenser Inlet Node Temperature in Heat Recovery Mode = -9.99 C
   **   ~~~   ** ...Minimum Outdoor Temperature in Cooling Mode = -5.99 C
   **   ~~~   ** ...Minimum Outdoor Temperature in Heating Mode = -19.99 C
   **   ~~~   ** ...Minimum Outdoor Temperature in Heat Recovery Mode reset to greater of cooling or heating minimum temperature and simulation continues.
   **   ~~~   ** ... adjusted Minimum Condenser Inlet Node Temperature in Heat Recovery Mode = -5.99 C
   ** Warning ** GetVRFInput: AirConditioner:VariableRefrigerantFlow="VRF OUTDOOR UNIT_BLOCK1:ZONE2" curve values
   **   ~~~   ** ... Cooling Capacity Ratio Modifier Function of Low Temperature Curve Name = VRFCOOLCAPFT output is not equal to 1.0 (+ or - 10%) at rated conditions.
   **   ~~~   ** ... Curve output at rated conditions = 1.136
   ** Warning ** AirConditioner:VariableRefrigerantFlow = "VRF OUTDOOR UNIT_BLOCK1:ZONE2", Minimum Condenser Inlet Node Temperature in Heat Recovery Mode is less than the minimum temperature in heat pump mode.
   **   ~~~   ** ...Minimum Condenser Inlet Node Temperature in Heat Recovery Mode = -9.99 C
   **   ~~~   ** ...Minimum Outdoor Temperature in Cooling Mode = -5.99 C
   **   ~~~   ** ...Minimum Outdoor Temperature in Heating Mode = -19.99 C
   **   ~~~   ** ...Minimum Outdoor Temperature in Heat Recovery Mode reset to greater of cooling or heating minimum temperature and simulation continues.
   **   ~~~   ** ... adjusted Minimum Condenser Inlet Node Temperature in Heat Recovery Mode = -5.99 C
   ** Warning ** GetVRFInput: AirConditioner:VariableRefrigerantFlow="VRF OUTDOOR UNIT_BLOCK1:ZONE4" curve values
   **   ~~~   ** ... Cooling Capacity Ratio Modifier Function of Low Temperature Curve Name = VRFCOOLCAPFT output is not equal to 1.0 (+ or - 10%) at rated conditions.
   **   ~~~   ** ... Curve output at rated conditions = 1.136
   ** Warning ** AirConditioner:VariableRefrigerantFlow = "VRF OUTDOOR UNIT_BLOCK1:ZONE4", Minimum Condenser Inlet Node Temperature in Heat Recovery Mode is less than the minimum temperature in heat pump mode.
   **   ~~~   ** ...Minimum Condenser Inlet Node Temperature in Heat Recovery Mode = -9.99 C
   **   ~~~   ** ...Minimum Outdoor Temperature in Cooling Mode = -5.99 C
   **   ~~~   ** ...Minimum Outdoor Temperature in Heating Mode = -19.99 C
   **   ~~~   ** ...Minimum Outdoor Temperature in Heat Recovery Mode reset to greater of cooling or heating minimum temperature and simulation continues.
   **   ~~~   ** ... adjusted Minimum Condenser Inlet Node Temperature in Heat Recovery Mode = -5.99 C
   ** Warning ** GetDXCoils: Coil:Cooling:DX:VariableRefrigerantFlow="BLOCK1:ZONE1 VRF INDOOR UNIT DX COOLING COIL" curve values
   **   ~~~   ** ... Cooling Capacity Ratio Modifier Function of Temperature Curve Name = VRFTUCOOLCAPFT output is not equal to 1.0 (+ or - 10%) at rated conditions.
   **   ~~~   ** ... Curve output at rated conditions = 1.136
   ** Warning ** GetDXCoils: Coil:Cooling:DX:VariableRefrigerantFlow="BLOCK1:ZONE3 VRF INDOOR UNIT DX COOLING COIL" curve values
   **   ~~~   ** ... Cooling Capacity Ratio Modifier Function of Temperature Curve Name = VRFTUCOOLCAPFT output is not equal to 1.0 (+ or - 10%) at rated conditions.
   **   ~~~   ** ... Curve output at rated conditions = 1.136
   ** Warning ** GetDXCoils: Coil:Cooling:DX:VariableRefrigerantFlow="BLOCK1:ZONE5 VRF INDOOR UNIT DX COOLING COIL" curve values
   **   ~~~   ** ... Cooling Capacity Ratio Modifier Function of Temperature Curve Name = VRFTUCOOLCAPFT output is not equal to 1.0 (+ or - 10%) at rated conditions.
   **   ~~~   ** ... Curve output at rated conditions = 1.136
   ** Warning ** GetDXCoils: Coil:Cooling:DX:VariableRefrigerantFlow="BLOCK1:ZONE2 VRF INDOOR UNIT DX COOLING COIL" curve values
   **   ~~~   ** ... Cooling Capacity Ratio Modifier Function of Temperature Curve Name = VRFTUCOOLCAPFT output is not equal to 1.0 (+ or - 10%) at rated conditions.
   **   ~~~   ** ... Curve output at rated conditions = 1.136
   ** Warning ** GetDXCoils: Coil:Cooling:DX:VariableRefrigerantFlow="BLOCK1:ZONE4 VRF INDOOR UNIT DX COOLING COIL" curve values
   **   ~~~   ** ... Cooling Capacity Ratio Modifier Function of Temperature Curve Name = VRFTUCOOLCAPFT output is not equal to 1.0 (+ or - 10%) at rated conditions.
   **   ~~~   ** ... Curve output at rated conditions = 1.136
   ** Warning ** ZoneTerminalUnitList "VRF OUTDOOR UNIT_BLOCK1:ZONE1 ZONE LIST"
   ** Warning ** ...Only 1 Terminal Unit connected to system and heat recovery is selected.
   **   ~~~   ** ...Heat recovery will be disabled.
   ** Warning ** ManageSizing: For a plant sizing run, there must be at least 1 Sizing:Plant object input. SimulationControl Plant Sizing option ignored.
   ** Warning ** AirConditioner:VariableRefrigerantFlow "VRF OUTDOOR UNIT_BLOCK1:ZONE1".
   **   ~~~   ** ...InitVRF: VRF Heat Pump Min/Max Operating Temperature in Cooling Mode Limits have been exceeded and VRF system is disabled.
   **   ~~~   ** ... Outdoor Unit Inlet Air Temperature                 = -7.149
   **   ~~~   ** ... Cooling Minimum Outdoor Unit Inlet Temperature = -5.999
   **   ~~~   ** ... Cooling Maximum Outdoor Unit Inlet Temperature = 43.000
   **   ~~~   ** ... Check VRF Heat Pump Min/Max Outdoor Temperature in Cooling Mode limits.
   **   ~~~   **  During Warmup, Environment=UNTITLED (O1-O1:31-12), at Simulation time=01/01 00:00 - 00:30
   ** Warning ** AirConditioner:VariableRefrigerantFlow "VRF OUTDOOR UNIT_BLOCK1:ZONE3".
   **   ~~~   ** ...InitVRF: VRF Heat Pump Min/Max Operating Temperature in Cooling Mode Limits have been exceeded and VRF system is disabled.
   **   ~~~   ** ... Outdoor Unit Inlet Air Temperature                 = -7.149
   **   ~~~   ** ... Cooling Minimum Outdoor Unit Inlet Temperature = -5.999
   **   ~~~   ** ... Cooling Maximum Outdoor Unit Inlet Temperature = 43.000
   **   ~~~   ** ... Check VRF Heat Pump Min/Max Outdoor Temperature in Cooling Mode limits.
   **   ~~~   **  During Warmup, Environment=UNTITLED (O1-O1:31-12), at Simulation time=01/01 00:00 - 00:30
   ** Warning ** AirConditioner:VariableRefrigerantFlow "VRF OUTDOOR UNIT_BLOCK1:ZONE2".
   **   ~~~   ** ...InitVRF: VRF Heat Pump Min/Max Operating Temperature in Cooling Mode Limits have been exceeded and VRF system is disabled.
   **   ~~~   ** ... Outdoor Unit Inlet Air Temperature                 = -7.149
   **   ~~~   ** ... Cooling Minimum Outdoor Unit Inlet Temperature = -5.999
   **   ~~~   ** ... Cooling Maximum Outdoor Unit Inlet Temperature = 43.000
   **   ~~~   ** ... Check VRF Heat Pump Min/Max Outdoor Temperature in Cooling Mode limits.
   **   ~~~   **  During Warmup, Environment=UNTITLED (O1-O1:31-12), at Simulation time=01/01 00:00 - 00:30
   ** Warning ** AirConditioner:VariableRefrigerantFlow "VRF OUTDOOR UNIT_BLOCK1:ZONE4".
   **   ~~~   ** ...InitVRF: VRF Heat Pump Min/Max Operating Temperature in Cooling Mode Limits have been exceeded and VRF system is disabled.
   **   ~~~   ** ... Outdoor Unit Inlet Air Temperature                 = -7.149
   **   ~~~   ** ... Cooling Minimum Outdoor Unit Inlet Temperature = -5.999
   **   ~~~   ** ... Cooling Maximum Outdoor Unit Inlet Temperature = 43.000
   **   ~~~   ** ... Check VRF Heat Pump Min/Max Outdoor Temperature in Cooling Mode limits.
   **   ~~~   **  During Warmup, Environment=UNTITLED (O1-O1:31-12), at Simulation time=01/01 00:00 - 00:30
   ************* Testing Individual Branch Integrity
   ************* All Branches passed integrity testing
   ************* Testing Individual Supply Air Path Integrity
   ************* All Supply Air Paths passed integrity testing
   ************* Testing Individual Return Air Path Integrity
   ************* All Return Air Paths passed integrity testing
   ************* No node connection errors were found.
   ************* Beginning Simulation
   ** Warning ** In Output:Table:Monthly 'EndUseEnergyConsumptionOtherFuelsMonthly' invalid Variable or Meter Name 'EXTERIOREQUIPMENT:OTHERFUEL1'
   ** Warning ** In Output:Table:Monthly 'EndUseEnergyConsumptionOtherFuelsMonthly' invalid Variable or Meter Name 'COOLING:OTHERFUEL1'
   ** Warning ** In Output:Table:Monthly 'EndUseEnergyConsumptionOtherFuelsMonthly' invalid Variable or Meter Name 'HEATING:OTHERFUEL1'
   ** Warning ** In Output:Table:Monthly 'EndUseEnergyConsumptionOtherFuelsMonthly' invalid Variable or Meter Name 'WATERSYSTEMS:OTHERFUEL1'
   ** Warning ** In Output:Table:Monthly 'EndUseEnergyConsumptionOtherFuelsMonthly' invalid Variable or Meter Name 'COGENERATION:OTHERFUEL1'
   ** Warning ** In Output:Table:Monthly 'EndUseEnergyConsumptionOtherFuelsMonthly' invalid Variable or Meter Name 'EXTERIOREQUIPMENT:OTHERFUEL2'
   ** Warning ** In Output:Table:Monthly 'EndUseEnergyConsumptionOtherFuelsMonthly' invalid Variable or Meter Name 'COOLING:OTHERFUEL2'
   ** Warning ** In Output:Table:Monthly 'EndUseEnergyConsumptionOtherFuelsMonthly' invalid Variable or Meter Name 'HEATING:OTHERFUEL2'
   ** Warning ** In Output:Table:Monthly 'EndUseEnergyConsumptionOtherFuelsMonthly' invalid Variable or Meter Name 'WATERSYSTEMS:OTHERFUEL2'
   ** Warning ** In Output:Table:Monthly 'EndUseEnergyConsumptionOtherFuelsMonthly' invalid Variable or Meter Name 'COGENERATION:OTHERFUEL2'
   ** Warning ** In Output:Table:Monthly 'PeakEnergyEndUseOtherFuelsMonthly' invalid Variable or Meter Name 'EXTERIOREQUIPMENT:OTHERFUEL1'
   ** Warning ** In Output:Table:Monthly 'PeakEnergyEndUseOtherFuelsMonthly' invalid Variable or Meter Name 'COOLING:OTHERFUEL1'
   ** Warning ** In Output:Table:Monthly 'PeakEnergyEndUseOtherFuelsMonthly' invalid Variable or Meter Name 'HEATING:OTHERFUEL1'
   ** Warning ** In Output:Table:Monthly 'PeakEnergyEndUseOtherFuelsMonthly' invalid Variable or Meter Name 'WATERSYSTEMS:OTHERFUEL1'
   ** Warning ** In Output:Table:Monthly 'PeakEnergyEndUseOtherFuelsMonthly' invalid Variable or Meter Name 'COGENERATION:OTHERFUEL1'
   ** Warning ** In Output:Table:Monthly 'PeakEnergyEndUseOtherFuelsMonthly' invalid Variable or Meter Name 'EXTERIOREQUIPMENT:OTHERFUEL2'
   ** Warning ** In Output:Table:Monthly 'PeakEnergyEndUseOtherFuelsMonthly' invalid Variable or Meter Name 'COOLING:OTHERFUEL2'
   ** Warning ** In Output:Table:Monthly 'PeakEnergyEndUseOtherFuelsMonthly' invalid Variable or Meter Name 'HEATING:OTHERFUEL2'
   ** Warning ** In Output:Table:Monthly 'PeakEnergyEndUseOtherFuelsMonthly' invalid Variable or Meter Name 'WATERSYSTEMS:OTHERFUEL2'
   ** Warning ** In Output:Table:Monthly 'PeakEnergyEndUseOtherFuelsMonthly' invalid Variable or Meter Name 'COGENERATION:OTHERFUEL2'
   ** Warning ** Processing Monthly Tabular Reports: Variable names not valid for this simulation
   **   ~~~   ** ...use Output:Diagnostics,DisplayExtraWarnings; to show more details on individual variables.
   ** Warning ** AirConditioner:VariableRefrigerantFlow "VRF OUTDOOR UNIT_BLOCK1:ZONE1".
   **   ~~~   ** ...InitVRF: VRF Heat Pump Min/Max Operating Temperature in Heating Mode Limits have been exceeded and VRF system is disabled.
   **   ~~~   ** ... Outdoor Unit Inlet Air Temperature             = -20.199
   **   ~~~   ** ... Heating Minimum Outdoor Unit Inlet Temperature = -19.999
   **   ~~~   ** ... Heating Maximum Outdoor Unit Inlet Temperature = 40.000
   **   ~~~   ** ... Check VRF Heat Pump Min/Max Outdoor Temperature in Heating Mode limits.
   **   ~~~   **  Environment=UNTITLED (O1-O1:31-12), at Simulation time=01/23 23:30 - 24:00
   ** Warning ** AirConditioner:VariableRefrigerantFlow "VRF OUTDOOR UNIT_BLOCK1:ZONE3".
   **   ~~~   ** ...InitVRF: VRF Heat Pump Min/Max Operating Temperature in Heating Mode Limits have been exceeded and VRF system is disabled.
   **   ~~~   ** ... Outdoor Unit Inlet Air Temperature             = -20.199
   **   ~~~   ** ... Heating Minimum Outdoor Unit Inlet Temperature = -19.999
   **   ~~~   ** ... Heating Maximum Outdoor Unit Inlet Temperature = 40.000
   **   ~~~   ** ... Check VRF Heat Pump Min/Max Outdoor Temperature in Heating Mode limits.
   **   ~~~   **  Environment=UNTITLED (O1-O1:31-12), at Simulation time=01/23 23:30 - 24:00
   ** Warning ** AirConditioner:VariableRefrigerantFlow "VRF OUTDOOR UNIT_BLOCK1:ZONE5".
   **   ~~~   ** ...InitVRF: VRF Heat Pump Min/Max Operating Temperature in Heating Mode Limits have been exceeded and VRF system is disabled.
   **   ~~~   ** ... Outdoor Unit Inlet Air Temperature             = -20.199
   **   ~~~   ** ... Heating Minimum Outdoor Unit Inlet Temperature = -19.999
   **   ~~~   ** ... Heating Maximum Outdoor Unit Inlet Temperature = 40.000
   **   ~~~   ** ... Check VRF Heat Pump Min/Max Outdoor Temperature in Heating Mode limits.
   **   ~~~   **  Environment=UNTITLED (O1-O1:31-12), at Simulation time=01/23 23:30 - 24:00
   ** Warning ** AirConditioner:VariableRefrigerantFlow "VRF OUTDOOR UNIT_BLOCK1:ZONE2".
   **   ~~~   ** ...InitVRF: VRF Heat Pump Min/Max Operating Temperature in Heating Mode Limits have been exceeded and VRF system is disabled.
   **   ~~~   ** ... Outdoor Unit Inlet Air Temperature             = -20.199
   **   ~~~   ** ... Heating Minimum Outdoor Unit Inlet Temperature = -19.999
   **   ~~~   ** ... Heating Maximum Outdoor Unit Inlet Temperature = 40.000
   **   ~~~   ** ... Check VRF Heat Pump Min/Max Outdoor Temperature in Heating Mode limits.
   **   ~~~   **  Environment=UNTITLED (O1-O1:31-12), at Simulation time=01/23 23:30 - 24:00
   ** Warning ** AirConditioner:VariableRefrigerantFlow "VRF OUTDOOR UNIT_BLOCK1:ZONE4".
   **   ~~~   ** ...InitVRF: VRF Heat Pump Min/Max Operating Temperature in Heating Mode Limits have been exceeded and VRF system is disabled.
   **   ~~~   ** ... Outdoor Unit Inlet Air Temperature             = -20.199
   **   ~~~   ** ... Heating Minimum Outdoor Unit Inlet Temperature = -19.999
   **   ~~~   ** ... Heating Maximum Outdoor Unit Inlet Temperature = 40.000
   **   ~~~   ** ... Check VRF Heat Pump Min/Max Outdoor Temperature in Heating Mode limits.
   **   ~~~   **  Environment=UNTITLED (O1-O1:31-12), at Simulation time=01/23 23:30 - 24:00
   ************* Simulation Error Summary *************
   ** Warning ** The following Report Variables were requested but not generated -- check.rdd file
   **   ~~~   ** Either the IDF did not contain these elements, the variable name is misspelled,
   **   ~~~   ** or the requested variable is an advanced output which requires Output : Diagnostics, DisplayAdvancedReportVariables;
   ************* Key=*, VarName=FACILITY TOTAL HVAC ELECTRIC DEMAND POWER, Frequency=Hourly
   ************* Key=BLOCK1_ZONE1 VRF Indoor Unit DX Cooling Coil, VarName=COOLING COIL TOTAL COOLING RATE, Frequency=Hourly
   ************* Key=BLOCK1_ZONE1 VRF Indoor Unit DX Heating Coil, VarName=HEATING COIL HEATING RATE, Frequency=Hourly
   ************* Key=BLOCK1_ZONE3 VRF Indoor Unit DX Cooling Coil, VarName=COOLING COIL TOTAL COOLING RATE, Frequency=Hourly
   ************* Key=BLOCK1_ZONE3 VRF Indoor Unit DX Heating Coil, VarName=HEATING COIL HEATING RATE, Frequency=Hourly
   ************* Key=BLOCK1_ZONE5 VRF Indoor Unit DX Cooling Coil, VarName=COOLING COIL TOTAL COOLING RATE, Frequency=Hourly
   ************* Key=BLOCK1_ZONE5 VRF Indoor Unit DX Heating Coil, VarName=HEATING COIL HEATING RATE, Frequency=Hourly
   ************* Key=BLOCK1_ZONE2 VRF Indoor Unit DX Cooling Coil, VarName=COOLING COIL TOTAL COOLING RATE, Frequency=Hourly
   ************* Key=BLOCK1_ZONE2 VRF Indoor Unit DX Heating Coil, VarName=HEATING COIL HEATING RATE, Frequency=Hourly
   ************* Key=BLOCK1_ZONE4 VRF Indoor Unit DX Cooling Coil, VarName=COOLING COIL TOTAL COOLING RATE, Frequency=Hourly
   ************* Key=BLOCK1_ZONE4 VRF Indoor Unit DX Heating Coil, VarName=HEATING COIL HEATING RATE, Frequency=Hourly
   ************* There are 1 unused objects in input.
   ************* Use Output:Diagnostics,DisplayUnusedObjects; to see them.
   ************* There are 15 unused schedules in input.
   ************* There are 17 unused week schedules in input.
   ************* There are 8 unused day schedules in input.
   ************* Use Output:Diagnostics,DisplayUnusedSchedules; to see them.
   *************
   ************* ===== Recurring Error Summary =====
   ************* The following recurring error messages occurred.
   *************
   *************  ** Warning ** AirConditioner:VariableRefrigerantFlow "VRF OUTDOOR UNIT_BLOCK1:ZONE1" -- Exceeded VRF Heat Pump min/max cooling temperature limit error continues...
   *************  **   ~~~   **   This error occurred 45 total times;
   *************  **   ~~~   **   during Warmup 45 times;
   *************  **   ~~~   **   during Sizing 0 times.
   *************  **   ~~~   **   Max=-6.8  Min=-8.3
   *************
   *************  ** Warning ** AirConditioner:VariableRefrigerantFlow "VRF OUTDOOR UNIT_BLOCK1:ZONE3" -- Exceeded VRF Heat Pump min/max cooling temperature limit error continues...
   *************  **   ~~~   **   This error occurred 23 total times;
   *************  **   ~~~   **   during Warmup 23 times;
   *************  **   ~~~   **   during Sizing 0 times.
   *************  **   ~~~   **   Max=-6.8  Min=-7.5
   *************
   *************  ** Warning ** AirConditioner:VariableRefrigerantFlow "VRF OUTDOOR UNIT_BLOCK1:ZONE2" -- Exceeded VRF Heat Pump min/max cooling temperature limit error continues...
   *************  **   ~~~   **   This error occurred 39 total times;
   *************  **   ~~~   **   during Warmup 39 times;
   *************  **   ~~~   **   during Sizing 0 times.
   *************  **   ~~~   **   Max=-6.8  Min=-8.3
   *************
   *************  ** Warning ** AirConditioner:VariableRefrigerantFlow "VRF OUTDOOR UNIT_BLOCK1:ZONE4" -- Exceeded VRF Heat Pump min/max cooling temperature limit error continues...
   *************  **   ~~~   **   This error occurred 36 total times;
   *************  **   ~~~   **   during Warmup 36 times;
   *************  **   ~~~   **   during Sizing 0 times.
   *************  **   ~~~   **   Max=-6.8  Min=-7.9
   *************
   *************  ** Warning ** AirConditioner:VariableRefrigerantFlow "VRF OUTDOOR UNIT_BLOCK1:ZONE1" -- Exceeded VRF Heat Pump min/max heating temperature limit error continues...
   *************  **   ~~~   **   This error occurred 168 total times;
   *************  **   ~~~   **   during Warmup 0 times;
   *************  **   ~~~   **   during Sizing 0 times.
   *************  **   ~~~   **   Max=-20.1  Min=-21.1
   *************
   *************  ** Warning ** AirConditioner:VariableRefrigerantFlow "VRF OUTDOOR UNIT_BLOCK1:ZONE3" -- Exceeded VRF Heat Pump min/max heating temperature limit error continues...
   *************  **   ~~~   **   This error occurred 168 total times;
   *************  **   ~~~   **   during Warmup 0 times;
   *************  **   ~~~   **   during Sizing 0 times.
   *************  **   ~~~   **   Max=-20.1  Min=-21.1
   *************
   *************  ** Warning ** AirConditioner:VariableRefrigerantFlow "VRF OUTDOOR UNIT_BLOCK1:ZONE5" -- Exceeded VRF Heat Pump min/max heating temperature limit error continues...
   *************  **   ~~~   **   This error occurred 168 total times;
   *************  **   ~~~   **   during Warmup 0 times;
   *************  **   ~~~   **   during Sizing 0 times.
   *************  **   ~~~   **   Max=-20.1  Min=-21.1
   *************
   *************  ** Warning ** AirConditioner:VariableRefrigerantFlow "VRF OUTDOOR UNIT_BLOCK1:ZONE2" -- Exceeded VRF Heat Pump min/max heating temperature limit error continues...
   *************  **   ~~~   **   This error occurred 168 total times;
   *************  **   ~~~   **   during Warmup 0 times;
   *************  **   ~~~   **   during Sizing 0 times.
   *************  **   ~~~   **   Max=-20.1  Min=-21.1
   *************
   *************  ** Warning ** AirConditioner:VariableRefrigerantFlow "VRF OUTDOOR UNIT_BLOCK1:ZONE4" -- Exceeded VRF Heat Pump min/max heating temperature limit error continues...
   *************  **   ~~~   **   This error occurred 168 total times;
   *************  **   ~~~   **   during Warmup 0 times;
   *************  **   ~~~   **   during Sizing 0 times.
   *************  **   ~~~   **   Max=-20.1  Min=-21.1
   *************
   *************
   ************* ===== Final Error Summary =====
   ************* The following error categories occurred.  Consider correcting or noting.
   ************* Nominally Unused Constructions
   ************* ..The nominally unused constructions warning is provided to alert you to potential conditions that can cause
   ************* ..extra time during simulation. Each construction is calculated by the algorithm indicated in the HeatBalanceAlgorithm
   ************* ..object. You may remove the constructions indicated (when you use the DisplayExtraWarnings option).
   *************
   ************* EnergyPlus Warmup Error Summary. During Warmup: 0 Warning; 0 Severe Errors.
   ************* EnergyPlus Sizing Error Summary. During Sizing: 25 Warning; 10 Severe Errors.
   ************* EnergyPlus Completed Successfully-- 1031 Warning; 10 Severe Errors; Elapsed Time=00hr 00min 19.52sec
