Program Version,EnergyPlus, Version 9.4.0-998c4b761e, YMD=2023.11.22 10:45
