Program Version,EnergyPlus, Version 9.4.0-998c4b761e, YMD=2023.11.22 10:45,
   ************* Beginning Zone Sizing Calculations
   ** Warning ** Weather file location will be used rather than entered (IDF) Location object.
   **   ~~~   ** ..Location object=UNTITLED (01-01:31-12)  (01-01:31-12)
   **   ~~~   ** ..Weather File Location=SEVILLA - ESP IWEC Data WMO#=083910
   **   ~~~   ** ..due to location differences, Latitude difference=[0.24] degrees, Longitude difference=[2.12] degrees.
   **   ~~~   ** ..Time Zone difference=[0.0] hour(s), Elevation difference=[94.56] percent, [539.00] meters.
   ** Warning ** GetSurfaceData: Construction PROJECT PARTITION of interzone surface BLOCK1:ZONE2_PARTITION_5_0_0 does not have the same materials in the reverse order as the construction PROJECT PARTITION_REV of adjacent surface BLOCK1:ZONE1_PARTITION_3_0_10000
   **   ~~~   ** or the properties of the reversed layers are not correct due to differing layer front and back side values
   **   ~~~   ** ...but Nominal U values are similar, diff=[0.0000] ... simulation proceeds.
   **   ~~~   ** ...if the two zones are expected to have significantly different temperatures, the proper "reverse" construction should be created.
   **   ~~~   ** ...this problem for this pair will not be reported again.
   ** Warning ** GetSurfaceData: Entered Zone Floor Areas differ from calculated Zone Floor Area(s).
   **   ~~~   ** ...use Output:Diagnostics,DisplayExtraWarnings; to show more details on individual zones.
   ************* Note that the following warning(s) may/will occur if you have not enclosed your zone completely.
   ** Warning ** Entered Zone Volumes differ from calculated zone volume(s).
   **   ~~~   ** ...use Output:Diagnostics,DisplayExtraWarnings; to show more details on individual zones.
   ** Warning ** CheckUsedConstructions: There are 5 nominally unused constructions in input.
   **   ~~~   ** For explicit details on each unused construction, use Output:Diagnostics,DisplayExtraWarnings;
   ** Severe  ** GetRuntimeLanguageUserInput: EnergyManagementSystem:GlobalVariable, invalid entry.
   **   ~~~   ** Invalid Erl Variable Name=COOLINGSEASON
   **   ~~~   ** Name conflicts with an existing global variable name
   ** Severe  ** GetRuntimeLanguageUserInput: EnergyManagementSystem:GlobalVariable, invalid entry.
   **   ~~~   ** Invalid Erl Variable Name=COOLSEASONEND
   **   ~~~   ** Name conflicts with an existing global variable name
   ** Severe  ** GetRuntimeLanguageUserInput: EnergyManagementSystem:GlobalVariable, invalid entry.
   **   ~~~   ** Invalid Erl Variable Name=COOLSEASONSTART
   **   ~~~   ** Name conflicts with an existing global variable name
   ** Severe  ** GetRuntimeLanguageUserInput: EnergyManagementSystem:GlobalVariable, invalid entry.
   **   ~~~   ** Invalid Erl Variable Name=TOLERANCE_COOLING_SP_BLOCK1_ZONE2
   **   ~~~   ** Name conflicts with an existing global variable name
   ** Severe  ** GetRuntimeLanguageUserInput: EnergyManagementSystem:GlobalVariable, invalid entry.
   **   ~~~   ** Invalid Erl Variable Name=TOLERANCE_COOLING_SP_BLOCK1_ZONE1
   **   ~~~   ** Name conflicts with an existing global variable name
   ** Severe  ** GetRuntimeLanguageUserInput: EnergyManagementSystem:GlobalVariable, invalid entry.
   **   ~~~   ** Invalid Erl Variable Name=TOLERANCE_COOLING_SP_COOLING_SEASON_BLOCK1_ZONE2
   **   ~~~   ** Name conflicts with an existing global variable name
   ** Severe  ** GetRuntimeLanguageUserInput: EnergyManagementSystem:GlobalVariable, invalid entry.
   **   ~~~   ** Invalid Erl Variable Name=TOLERANCE_COOLING_SP_COOLING_SEASON_BLOCK1_ZONE1
   **   ~~~   ** Name conflicts with an existing global variable name
   ** Severe  ** GetRuntimeLanguageUserInput: EnergyManagementSystem:GlobalVariable, invalid entry.
   **   ~~~   ** Invalid Erl Variable Name=TOLERANCE_COOLING_SP_HEATING_SEASON_BLOCK1_ZONE2
   **   ~~~   ** Name conflicts with an existing global variable name
   ** Severe  ** GetRuntimeLanguageUserInput: EnergyManagementSystem:GlobalVariable, invalid entry.
   **   ~~~   ** Invalid Erl Variable Name=TOLERANCE_COOLING_SP_HEATING_SEASON_BLOCK1_ZONE1
   **   ~~~   ** Name conflicts with an existing global variable name
   ** Severe  ** GetRuntimeLanguageUserInput: EnergyManagementSystem:GlobalVariable, invalid entry.
   **   ~~~   ** Invalid Erl Variable Name=TOLERANCE_HEATING_SP_BLOCK1_ZONE2
   **   ~~~   ** Name conflicts with an existing global variable name
   ** Severe  ** GetRuntimeLanguageUserInput: EnergyManagementSystem:GlobalVariable, invalid entry.
   **   ~~~   ** Invalid Erl Variable Name=TOLERANCE_HEATING_SP_BLOCK1_ZONE1
   **   ~~~   ** Name conflicts with an existing global variable name
   ** Severe  ** GetRuntimeLanguageUserInput: EnergyManagementSystem:GlobalVariable, invalid entry.
   **   ~~~   ** Invalid Erl Variable Name=TOLERANCE_HEATING_SP_COOLING_SEASON_BLOCK1_ZONE2
   **   ~~~   ** Name conflicts with an existing global variable name
   ** Severe  ** GetRuntimeLanguageUserInput: EnergyManagementSystem:GlobalVariable, invalid entry.
   **   ~~~   ** Invalid Erl Variable Name=TOLERANCE_HEATING_SP_COOLING_SEASON_BLOCK1_ZONE1
   **   ~~~   ** Name conflicts with an existing global variable name
   ** Severe  ** GetRuntimeLanguageUserInput: EnergyManagementSystem:GlobalVariable, invalid entry.
   **   ~~~   ** Invalid Erl Variable Name=TOLERANCE_HEATING_SP_HEATING_SEASON_BLOCK1_ZONE2
   **   ~~~   ** Name conflicts with an existing global variable name
   ** Severe  ** GetRuntimeLanguageUserInput: EnergyManagementSystem:GlobalVariable, invalid entry.
   **   ~~~   ** Invalid Erl Variable Name=TOLERANCE_HEATING_SP_HEATING_SEASON_BLOCK1_ZONE1
   **   ~~~   ** Name conflicts with an existing global variable name
   ** Severe  ** GetRuntimeLanguageUserInput: EnergyManagementSystem:GlobalVariable, invalid entry.
   **   ~~~   ** Invalid Erl Variable Name=ADAP_COEFF_BLOCK1_ZONE2
   **   ~~~   ** Name conflicts with an existing global variable name
   ** Severe  ** GetRuntimeLanguageUserInput: EnergyManagementSystem:GlobalVariable, invalid entry.
   **   ~~~   ** Invalid Erl Variable Name=ADAP_COEFF_BLOCK1_ZONE1
   **   ~~~   ** Name conflicts with an existing global variable name
   ** Severe  ** GetRuntimeLanguageUserInput: EnergyManagementSystem:GlobalVariable, invalid entry.
   **   ~~~   ** Invalid Erl Variable Name=ADAP_COEFF_HEATING_BLOCK1_ZONE2
   **   ~~~   ** Name conflicts with an existing global variable name
   ** Severe  ** GetRuntimeLanguageUserInput: EnergyManagementSystem:GlobalVariable, invalid entry.
   **   ~~~   ** Invalid Erl Variable Name=ADAP_COEFF_HEATING_BLOCK1_ZONE1
   **   ~~~   ** Name conflicts with an existing global variable name
   ** Severe  ** GetRuntimeLanguageUserInput: EnergyManagementSystem:GlobalVariable, invalid entry.
   **   ~~~   ** Invalid Erl Variable Name=ADAP_COEFF_COOLING_BLOCK1_ZONE2
   **   ~~~   ** Name conflicts with an existing global variable name
   ** Severe  ** GetRuntimeLanguageUserInput: EnergyManagementSystem:GlobalVariable, invalid entry.
   **   ~~~   ** Invalid Erl Variable Name=ADAP_COEFF_COOLING_BLOCK1_ZONE1
   **   ~~~   ** Name conflicts with an existing global variable name
   ** Severe  ** GetRuntimeLanguageUserInput: EnergyManagementSystem:GlobalVariable, invalid entry.
   **   ~~~   ** Invalid Erl Variable Name=PMV_HEATING_SP_BLOCK1_ZONE2
   **   ~~~   ** Name conflicts with an existing global variable name
   ** Severe  ** GetRuntimeLanguageUserInput: EnergyManagementSystem:GlobalVariable, invalid entry.
   **   ~~~   ** Invalid Erl Variable Name=PMV_HEATING_SP_BLOCK1_ZONE1
   **   ~~~   ** Name conflicts with an existing global variable name
   ** Severe  ** GetRuntimeLanguageUserInput: EnergyManagementSystem:GlobalVariable, invalid entry.
   **   ~~~   ** Invalid Erl Variable Name=PMV_COOLING_SP_BLOCK1_ZONE2
   **   ~~~   ** Name conflicts with an existing global variable name
   ** Severe  ** GetRuntimeLanguageUserInput: EnergyManagementSystem:GlobalVariable, invalid entry.
   **   ~~~   ** Invalid Erl Variable Name=PMV_COOLING_SP_BLOCK1_ZONE1
   **   ~~~   ** Name conflicts with an existing global variable name
   ** Severe  ** GetRuntimeLanguageUserInput: EnergyManagementSystem:GlobalVariable, invalid entry.
   **   ~~~   ** Invalid Erl Variable Name=APMV_BLOCK1_ZONE2
   **   ~~~   ** Name conflicts with an existing global variable name
   ** Severe  ** GetRuntimeLanguageUserInput: EnergyManagementSystem:GlobalVariable, invalid entry.
   **   ~~~   ** Invalid Erl Variable Name=APMV_BLOCK1_ZONE1
   **   ~~~   ** Name conflicts with an existing global variable name
   ** Severe  ** GetRuntimeLanguageUserInput: EnergyManagementSystem:GlobalVariable, invalid entry.
   **   ~~~   ** Invalid Erl Variable Name=COMFHOUR_BLOCK1_ZONE2
   **   ~~~   ** Name conflicts with an existing global variable name
   ** Severe  ** GetRuntimeLanguageUserInput: EnergyManagementSystem:GlobalVariable, invalid entry.
   **   ~~~   ** Invalid Erl Variable Name=COMFHOUR_BLOCK1_ZONE1
   **   ~~~   ** Name conflicts with an existing global variable name
   ** Severe  ** GetRuntimeLanguageUserInput: EnergyManagementSystem:GlobalVariable, invalid entry.
   **   ~~~   ** Invalid Erl Variable Name=DISCOMFHOUR_BLOCK1_ZONE2
   **   ~~~   ** Name conflicts with an existing global variable name
   ** Severe  ** GetRuntimeLanguageUserInput: EnergyManagementSystem:GlobalVariable, invalid entry.
   **   ~~~   ** Invalid Erl Variable Name=DISCOMFHOUR_BLOCK1_ZONE1
   **   ~~~   ** Name conflicts with an existing global variable name
   ** Severe  ** GetRuntimeLanguageUserInput: EnergyManagementSystem:GlobalVariable, invalid entry.
   **   ~~~   ** Invalid Erl Variable Name=DISCOMFHOUR_HEAT_BLOCK1_ZONE2
   **   ~~~   ** Name conflicts with an existing global variable name
   ** Severe  ** GetRuntimeLanguageUserInput: EnergyManagementSystem:GlobalVariable, invalid entry.
   **   ~~~   ** Invalid Erl Variable Name=DISCOMFHOUR_HEAT_BLOCK1_ZONE1
   **   ~~~   ** Name conflicts with an existing global variable name
   ** Severe  ** GetRuntimeLanguageUserInput: EnergyManagementSystem:GlobalVariable, invalid entry.
   **   ~~~   ** Invalid Erl Variable Name=DISCOMFHOUR_COLD_BLOCK1_ZONE2
   **   ~~~   ** Name conflicts with an existing global variable name
   ** Severe  ** GetRuntimeLanguageUserInput: EnergyManagementSystem:GlobalVariable, invalid entry.
   **   ~~~   ** Invalid Erl Variable Name=DISCOMFHOUR_COLD_BLOCK1_ZONE1
   **   ~~~   ** Name conflicts with an existing global variable name
   ** Severe  ** GetRuntimeLanguageUserInput: EnergyManagementSystem:GlobalVariable, invalid entry.
   **   ~~~   ** Invalid Erl Variable Name=OCCUPIED_HOUR_BLOCK1_ZONE2
   **   ~~~   ** Name conflicts with an existing global variable name
   ** Severe  ** GetRuntimeLanguageUserInput: EnergyManagementSystem:GlobalVariable, invalid entry.
   **   ~~~   ** Invalid Erl Variable Name=OCCUPIED_HOUR_BLOCK1_ZONE1
   **   ~~~   ** Name conflicts with an existing global variable name
   ** Severe  ** GetRuntimeLanguageUserInput: EnergyManagementSystem:GlobalVariable, invalid entry.
   **   ~~~   ** Invalid Erl Variable Name=APMV_H_SP_BLOCK1_ZONE2
   **   ~~~   ** Name conflicts with an existing global variable name
   ** Severe  ** GetRuntimeLanguageUserInput: EnergyManagementSystem:GlobalVariable, invalid entry.
   **   ~~~   ** Invalid Erl Variable Name=APMV_H_SP_BLOCK1_ZONE1
   **   ~~~   ** Name conflicts with an existing global variable name
   ** Severe  ** GetRuntimeLanguageUserInput: EnergyManagementSystem:GlobalVariable, invalid entry.
   **   ~~~   ** Invalid Erl Variable Name=APMV_C_SP_BLOCK1_ZONE2
   **   ~~~   ** Name conflicts with an existing global variable name
   ** Severe  ** GetRuntimeLanguageUserInput: EnergyManagementSystem:GlobalVariable, invalid entry.
   **   ~~~   ** Invalid Erl Variable Name=APMV_C_SP_BLOCK1_ZONE1
   **   ~~~   ** Name conflicts with an existing global variable name
   ** Severe  ** GetRuntimeLanguageUserInput: EnergyManagementSystem:GlobalVariable, invalid entry.
   **   ~~~   ** Invalid Erl Variable Name=APMV_H_SP_NOTOL_BLOCK1_ZONE2
   **   ~~~   ** Name conflicts with an existing global variable name
   ** Severe  ** GetRuntimeLanguageUserInput: EnergyManagementSystem:GlobalVariable, invalid entry.
   **   ~~~   ** Invalid Erl Variable Name=APMV_H_SP_NOTOL_BLOCK1_ZONE1
   **   ~~~   ** Name conflicts with an existing global variable name
   ** Severe  ** GetRuntimeLanguageUserInput: EnergyManagementSystem:GlobalVariable, invalid entry.
   **   ~~~   ** Invalid Erl Variable Name=APMV_C_SP_NOTOL_BLOCK1_ZONE2
   **   ~~~   ** Name conflicts with an existing global variable name
   ** Severe  ** GetRuntimeLanguageUserInput: EnergyManagementSystem:GlobalVariable, invalid entry.
   **   ~~~   ** Invalid Erl Variable Name=APMV_C_SP_NOTOL_BLOCK1_ZONE1
   **   ~~~   ** Name conflicts with an existing global variable name
   **  Fatal  ** Errors found in getting EMS Runtime Language input. Preceding condition causes termination.
   ...Summary of Errors that led to program termination:
   ..... Reference severe error count=45
   ..... Last severe error=GetRuntimeLanguageUserInput: EnergyManagementSystem:GlobalVariable, invalid entry.
   ************* Warning:  Node connection errors not checked - most system input has not been read (see previous warning).
   ************* Fatal error -- final processing.  Program exited before simulations began.  See previous error messages.
   *************
   ************* ===== Final Error Summary =====
   ************* The following error categories occurred.  Consider correcting or noting.
   ************* Nominally Unused Constructions
   ************* ..The nominally unused constructions warning is provided to alert you to potential conditions that can cause
   ************* ..extra time during simulation. Each construction is calculated by the algorithm indicated in the HeatBalanceAlgorithm
   ************* ..object. You may remove the constructions indicated (when you use the DisplayExtraWarnings option).
   *************
   ************* EnergyPlus Warmup Error Summary. During Warmup: 0 Warning; 0 Severe Errors.
   ************* EnergyPlus Sizing Error Summary. During Sizing: 5 Warning; 45 Severe Errors.
   ************* EnergyPlus Terminated--Fatal Error Detected. 5 Warning; 45 Severe Errors; Elapsed Time=00hr 00min  0.30sec
