Program Version,EnergyPlus, Version 9.4.0-998c4b761e, YMD=2024.02.14 16:43,
   ** Severe  ** Duplicate name found. name: "Heating_activation_time_chile". Overwriting existing object.
   **  Fatal  ** Errors occurred on processing input file. Preceding condition(s) cause termination.
   ...Summary of Errors that led to program termination:
   ..... Reference severe error count=1
   ..... Last severe error=Duplicate name found. name: "Heating_activation_time_chile". Overwriting existing object.
   ************* Warning:  Node connection errors not checked - most system input has not been read (see previous warning).
   ************* Fatal error -- final processing.  Program exited before simulations began.  See previous error messages.
   ************* EnergyPlus Warmup Error Summary. During Warmup: 0 Warning; 0 Severe Errors.
   ************* EnergyPlus Sizing Error Summary. During Sizing: 0 Warning; 0 Severe Errors.
   ************* EnergyPlus Terminated--Fatal Error Detected. 0 Warning; 1 Severe Errors; Elapsed Time=00hr 00min  0.21sec
