  0
SECTION
  2
ENTITIES
999
DXF created from EnergyPlus
999
Program Version,EnergyPlus, Version 9.4.0-998c4b761e, YMD=2024.02.14 16:33
999
Polygon Action,TRIANGULATE3DFACE
999
Color Scheme,Default
999
Text - True North
  0
TEXT
  8
1
  6
Continuous
 62
  3
 10
      -16.29825
 20
       -0.76054
 30
        0.10000
 40
 .25
  1
True North
 41
 0.0
  7
MONOTXT
210
0.0
220
0.0
230
1.0
999
Text - Building Title
  0
TEXT
  8
1
  6
Continuous
 62
  3
 10
      -19.29825
 20
       -4.76054
 30
        0.10000
 40
 .4
  1
Building - Building
 41
 0.0
  7
MONOTXT
210
0.0
220
0.0
230
1.0
999
North Arrow Stem
  0
3DFACE
  8
1
 62
  3
 10
      -15.29825
 20
       -0.76054
 30
        0.10000
 11
      -15.29825
 21
       -0.76054
 31
        0.00000
 12
      -15.29825
 22
       -3.76054
 32
        0.00000
 13
      -15.29825
 23
       -3.76054
 33
        0.10000
999
North Arrow Head 1
  0
3DFACE
  8
1
 62
  3
 10
      -15.29825
 20
       -0.76054
 30
        0.10000
 11
      -15.29825
 21
       -0.76054
 31
        0.00000
 12
      -15.79825
 22
       -1.62656
 32
        0.00000
 13
      -15.79825
 23
       -1.62656
 33
        0.10000
999
North Arrow Head 2
  0
3DFACE
  8
1
 62
  3
 10
      -15.29825
 20
       -0.76054
 30
        0.10000
 11
      -15.29825
 21
       -0.76054
 31
        0.00000
 12
      -14.79825
 22
       -1.62656
 32
        0.00000
 13
      -14.79825
 23
       -1.62656
 33
        0.10000
999
North Arrow Side 1
  0
3DFACE
  8
1
 62
  3
 10
      -15.79825
 20
        0.73946
 30
        0.10000
 11
      -15.79825
 21
        0.73946
 31
        0.00000
 12
      -15.79825
 22
       -0.26054
 32
        0.00000
 13
      -15.79825
 23
       -0.26054
 33
        0.10000
999
North Arrow Side 2
  0
3DFACE
  8
1
 62
  3
 10
      -15.79825
 20
        0.73946
 30
        0.10000
 11
      -15.79825
 21
        0.73946
 31
        0.00000
 12
      -14.79825
 22
       -0.26054
 32
        0.00000
 13
      -14.79825
 23
       -0.26054
 33
        0.10000
999
North Arrow Side 3
  0
3DFACE
  8
1
 62
  3
 10
      -14.79825
 20
        0.73946
 30
        0.10000
 11
      -14.79825
 21
        0.73946
 31
        0.00000
 12
      -14.79825
 22
       -0.26054
 32
        0.00000
 13
      -14.79825
 23
       -0.26054
 33
        0.10000
999
Zone Names
999
Zone=1:BLOCK1_ZONE2
999
Zone=2:BLOCK1_ZONE1
999
BLOCK1:ZONE2:BLOCK1:ZONE2_PARTITION_2_0_0
  0
3DFACE
  8
BLOCK1_ZONE2
 62
 43
 10
        2.01475
 20
       -3.76054
 30
        3.50000
 11
        2.01475
 21
       -3.76054
 31
        0.00000
 12
        2.01475
 22
        2.03673
 32
        0.00000
 13
        2.01475
 23
        2.03673
 33
        3.50000
999
BLOCK1:ZONE2:BLOCK1:ZONE2_WALL_3_0_0
  0
3DFACE
  8
BLOCK1_ZONE2
 62
 43
 10
        2.01475
 20
        2.03673
 30
        3.50000
 11
        2.01475
 21
        2.03673
 31
        0.00000
 12
       -5.29825
 22
        2.03673
 32
        0.00000
 13
       -5.29825
 23
        2.03673
 33
        3.50000
999
BLOCK1:ZONE2:BLOCK1:ZONE2_WALL_3_0_0_0_0_0_WIN
  0
3DFACE
  8
BLOCK1_ZONE2
 62
143
 10
        0.85793
 20
        2.03673
 30
        2.26000
 11
        0.85793
 21
        2.03673
 31
        0.84000
 12
       -3.92392
 22
        2.03673
 32
        0.84000
 13
       -3.92392
 23
        2.03673
 33
        2.26000
999
BLOCK1:ZONE2:BLOCK1:ZONE2_WALL_4_0_0
  0
3DFACE
  8
BLOCK1_ZONE2
 62
 43
 10
       -5.29825
 20
        2.03673
 30
        3.50000
 11
       -5.29825
 21
        2.03673
 31
        0.00000
 12
       -5.29825
 22
       -3.76054
 32
        0.00000
 13
       -5.29825
 23
       -3.76054
 33
        3.50000
999
BLOCK1:ZONE2:BLOCK1:ZONE2_WALL_4_0_0_0_0_0_WIN
  0
3DFACE
  8
BLOCK1_ZONE2
 62
143
 10
       -5.29825
 20
        0.92239
 30
        2.26000
 11
       -5.29825
 21
        0.92239
 31
        0.84000
 12
       -5.29825
 22
       -2.64620
 32
        0.84000
 13
       -5.29825
 23
       -2.64620
 33
        2.26000
999
BLOCK1:ZONE2:BLOCK1:ZONE2_WALL_5_0_0
  0
3DFACE
  8
BLOCK1_ZONE2
 62
 43
 10
       -5.29825
 20
       -3.76054
 30
        3.50000
 11
       -5.29825
 21
       -3.76054
 31
        0.00000
 12
        2.01475
 22
       -3.76054
 32
        0.00000
 13
        2.01475
 23
       -3.76054
 33
        3.50000
999
BLOCK1:ZONE2:BLOCK1:ZONE2_WALL_5_0_0_0_0_0_WIN
  0
3DFACE
  8
BLOCK1_ZONE2
 62
143
 10
       -3.92392
 20
       -3.76054
 30
        2.26000
 11
       -3.92392
 21
       -3.76054
 31
        0.84000
 12
        0.85793
 22
       -3.76054
 32
        0.84000
 13
        0.85793
 23
       -3.76054
 33
        2.26000
999
BLOCK1:ZONE2:BLOCK1:ZONE2_GROUNDFLOOR_0_0_0
  0
3DFACE
  8
BLOCK1_ZONE2
 62
  8
 10
        2.01475
 20
        2.03673
 30
        0.00000
 11
        2.01475
 21
       -3.76054
 31
        0.00000
 12
       -5.29825
 22
       -3.76054
 32
        0.00000
 13
       -5.29825
 23
        2.03673
 33
        0.00000
999
BLOCK1:ZONE2:BLOCK1:ZONE2_ROOF_1_0_0
  0
3DFACE
  8
BLOCK1_ZONE2
 62
 15
 10
       -5.29825
 20
        2.03673
 30
        3.50000
 11
       -5.29825
 21
       -3.76054
 31
        3.50000
 12
        2.01475
 22
       -3.76054
 32
        3.50000
 13
        2.01475
 23
        2.03673
 33
        3.50000
999
BLOCK1:ZONE1:BLOCK1:ZONE1_PARTITION_4_0_10000
  0
3DFACE
  8
BLOCK1_ZONE1
 62
 43
 10
        2.01475
 20
        2.03673
 30
        3.50000
 11
        2.01475
 21
        2.03673
 31
        0.00000
 12
        2.01475
 22
       -3.76054
 32
        0.00000
 13
        2.01475
 23
       -3.76054
 33
        3.50000
999
BLOCK1:ZONE1:BLOCK1:ZONE1_WALL_2_0_0
  0
3DFACE
  8
BLOCK1_ZONE1
 62
 43
 10
        8.15620
 20
       -3.76054
 30
        3.50000
 11
        8.15620
 21
       -3.76054
 31
        0.00000
 12
        8.15620
 22
        2.03673
 32
        0.00000
 13
        8.15620
 23
        2.03673
 33
        3.50000
999
BLOCK1:ZONE1:BLOCK1:ZONE1_WALL_2_0_0_0_0_0_WIN
  0
3DFACE
  8
BLOCK1_ZONE1
 62
143
 10
        8.15620
 20
       -2.64620
 30
        2.26000
 11
        8.15620
 21
       -2.64620
 31
        0.84000
 12
        8.15620
 22
        0.92239
 32
        0.84000
 13
        8.15620
 23
        0.92239
 33
        2.26000
999
BLOCK1:ZONE1:BLOCK1:ZONE1_WALL_3_0_0
  0
3DFACE
  8
BLOCK1_ZONE1
 62
 43
 10
        8.15620
 20
        2.03673
 30
        3.50000
 11
        8.15620
 21
        2.03673
 31
        0.00000
 12
        2.01475
 22
        2.03673
 32
        0.00000
 13
        2.01475
 23
        2.03673
 33
        3.50000
999
BLOCK1:ZONE1:BLOCK1:ZONE1_WALL_3_0_0_0_0_0_WIN
  0
3DFACE
  8
BLOCK1_ZONE1
 62
143
 10
        6.95761
 20
        2.03673
 30
        2.26000
 11
        6.95761
 21
        2.03673
 31
        0.84000
 12
        2.99585
 22
        2.03673
 32
        0.84000
 13
        2.99585
 23
        2.03673
 33
        2.26000
999
BLOCK1:ZONE1:BLOCK1:ZONE1_WALL_5_0_0
  0
3DFACE
  8
BLOCK1_ZONE1
 62
 43
 10
        2.01475
 20
       -3.76054
 30
        3.50000
 11
        2.01475
 21
       -3.76054
 31
        0.00000
 12
        8.15620
 22
       -3.76054
 32
        0.00000
 13
        8.15620
 23
       -3.76054
 33
        3.50000
999
BLOCK1:ZONE1:BLOCK1:ZONE1_WALL_5_0_0_0_0_0_WIN
  0
3DFACE
  8
BLOCK1_ZONE1
 62
143
 10
        2.99585
 20
       -3.76054
 30
        2.26000
 11
        2.99585
 21
       -3.76054
 31
        0.84000
 12
        6.95761
 22
       -3.76054
 32
        0.84000
 13
        6.95761
 23
       -3.76054
 33
        2.26000
999
BLOCK1:ZONE1:BLOCK1:ZONE1_GROUNDFLOOR_0_0_0
  0
3DFACE
  8
BLOCK1_ZONE1
 62
  8
 10
        8.15620
 20
        2.03673
 30
        0.00000
 11
        8.15620
 21
       -3.76054
 31
        0.00000
 12
        2.01475
 22
       -3.76054
 32
        0.00000
 13
        2.01475
 23
        2.03673
 33
        0.00000
999
BLOCK1:ZONE1:BLOCK1:ZONE1_ROOF_1_0_0
  0
3DFACE
  8
BLOCK1_ZONE1
 62
 15
 10
        2.01475
 20
        2.03673
 30
        3.50000
 11
        2.01475
 21
       -3.76054
 31
        3.50000
 12
        8.15620
 22
       -3.76054
 32
        3.50000
 13
        8.15620
 23
        2.03673
 33
        3.50000
  0
ENDSEC
  0
EOF
