Program Version,EnergyPlus, Version 23.2.0-7636e6b3e9, YMD=2024.03.22 11:53,
   ** Warning ** ManageSizing: For a zone sizing run, there must be at least 1 Sizing:Zone input object. SimulationControl Zone Sizing option ignored.
   ** Warning ** ManageSizing: For a plant sizing run, there must be at least 1 Sizing:Plant object input. SimulationControl Plant Sizing option ignored.
   ** Warning ** Weather file location will be used rather than entered (IDF) Location object.
   **   ~~~   ** ..Location object=HONOLULU INTL ARPT_HI_USA
   **   ~~~   ** ..Weather File Location=Mulchen - - MN8 WMO#=999
   **   ~~~   ** ..due to location differences, Latitude difference=[59.04] degrees, Longitude difference=[85.69] degrees.
   **   ~~~   ** ..Time Zone difference=[6.0] hour(s), Elevation difference=[6700.00] percent, [134.00] meters.
   ** Warning ** ProcessScheduleInput: Schedule:Day:Interval="ECONOMIZER MAX OA FRACTION 70 PCT DEFAULT", Blank Schedule Type Limits Name input -- will not be validated.
   ** Warning ** ProcessScheduleInput: Schedule:Day:Interval="OFFICESMALL_BUSINESS_SCH DEFAULT", Blank Schedule Type Limits Name input -- will not be validated.
   ** Warning ** ProcessScheduleInput: Schedule:Day:Interval="OFFICESMALL_BUSINESS_SCH SUMMER DESIGN DAY", Blank Schedule Type Limits Name input -- will not be validated.
   ** Warning ** ProcessScheduleInput: Schedule:Day:Interval="OFFICESMALL_BUSINESS_SCH WINTER DESIGN DAY", Blank Schedule Type Limits Name input -- will not be validated.
   ** Warning ** ProcessScheduleInput: Schedule:Day:Interval="OFFICESMALL_BUSINESS_SCH WKDY DAY", Blank Schedule Type Limits Name input -- will not be validated.
   ** Warning ** ProcessScheduleInput: Schedule:Year="OFFICESMALL_BUSINESS_SCH", Blank Schedule Type Limits Name input -- will not be validated.
   ** Warning ** ProcessScheduleInput: Schedule:Constant="ALWAYS OFF DISCRETE", Blank Schedule Type Limits Name input -- will not be validated.
   ** Warning ** ProcessScheduleInput: Schedule:Constant="ALWAYS ON CONTINUOUS", Blank Schedule Type Limits Name input -- will not be validated.
   ** Warning ** CheckUsedConstructions: There are 16 nominally unused constructions in input.
   **   ~~~   ** For explicit details on each unused construction, use Output:Diagnostics,DisplayExtraWarnings;
   ** Warning ** GetDaylightingControls: Fraction of zone or space controlled by the Daylighting reference points is < 1.0.
   **   ~~~   ** ..discovered in Daylighting:Controls="PERIMETER_ZN_1 ZN DAYLIGHTINGCONTROLS", only 0.274 of the zone or space is controlled.
   ** Warning ** GetDaylightingControls: Fraction of zone or space controlled by the Daylighting reference points is < 1.0.
   **   ~~~   ** ..discovered in Daylighting:Controls="PERIMETER_ZN_2 ZN DAYLIGHTINGCONTROLS", only 0.282 of the zone or space is controlled.
   ** Warning ** GetDaylightingControls: Fraction of zone or space controlled by the Daylighting reference points is < 1.0.
   **   ~~~   ** ..discovered in Daylighting:Controls="PERIMETER_ZN_3 ZN DAYLIGHTINGCONTROLS", only 0.271 of the zone or space is controlled.
   ** Warning ** GetDaylightingControls: Fraction of zone or space controlled by the Daylighting reference points is < 1.0.
   **   ~~~   ** ..discovered in Daylighting:Controls="PERIMETER_ZN_4 ZN DAYLIGHTINGCONTROLS", only 0.282 of the zone or space is controlled.
   ** Warning ** Output:Meter:MeterFileOnly: invalid Key Name="NATURALGAS:FACILITY" - not found.
   ************* Testing Individual Branch Integrity
   ************* All Branches passed integrity testing
   ************* Testing Individual Supply Air Path Integrity
   ************* All Supply Air Paths passed integrity testing
   ************* Testing Individual Return Air Path Integrity
   ************* All Return Air Paths passed integrity testing
   ************* No node connection errors were found.
   ** Severe  ** Invalid Output:Variable or Output:Meter Index Key Name =OFFICE WHOLEBUILDING - SM OFFICE PEOPLE
   **   ~~~   ** For Output:Variable or Output:Meter = ZONE THERMAL COMFORT CEN 15251 ADAPTIVE MODEL RUNNING AVERAGE OUTDOOR AIR TEMPERATURE
   **   ~~~   ** Entered in EnergyManagementSystem:Sensor=RMOT
   **   ~~~   ** Unique Key Name not found.
   ** Severe  ** Invalid Output:Variable or Output:Meter Index Key Name =OFFICE WHOLEBUILDING - SM OFFICE PEOPLE
   **   ~~~   ** For Output:Variable or Output:Meter = ZONE THERMAL COMFORT ASHRAE 55 ADAPTIVE MODEL RUNNING AVERAGE OUTDOOR AIR TEMPERATURE
   **   ~~~   ** Entered in EnergyManagementSystem:Sensor=PMOT
   **   ~~~   ** Unique Key Name not found.
   **  Fatal  ** Errors found in processing Energy Management System input. Preceding condition causes termination.
   ...Summary of Errors that led to program termination:
   ..... Reference severe error count=2
   ..... Last severe error=Invalid Output:Variable or Output:Meter Index Key Name =OFFICE WHOLEBUILDING - SM OFFICE PEOPLE
   ************* Warning:  Node connection errors not checked - most system input has not been read (see previous warning).
   ************* Fatal error -- final processing.  Program exited before simulations began.  See previous error messages.
   *************
   ************* ===== Final Error Summary =====
   ************* The following error categories occurred.  Consider correcting or noting.
   ************* Nominally Unused Constructions
   ************* ..The nominally unused constructions warning is provided to alert you to potential conditions that can cause
   ************* ..extra time during simulation. Each construction is calculated by the algorithm indicated in the HeatBalanceAlgorithm
   ************* ..object. You may remove the constructions indicated (when you use the DisplayExtraWarnings option).
   *************
   ************* EnergyPlus Warmup Error Summary. During Warmup: 0 Warning; 0 Severe Errors.
   ************* EnergyPlus Sizing Error Summary. During Sizing: 2 Warning; 0 Severe Errors.
   ************* EnergyPlus Terminated--Fatal Error Detected. 17 Warning; 2 Severe Errors; Elapsed Time=00hr 00min  0.67sec
