Program Version,EnergyPlus, Version 9.4.0-998c4b761e, YMD=2024.02.14 16:33
