Program Version,EnergyPlus, Version 9.6.0-f420c06a69, YMD=2022.09.29 15:47,
   ** Warning ** Timestep: Requested number (2) is less than the suggested minimum of 4.
   **   ~~~   ** Please see entry for Timestep in Input/Output Reference for discussion of considerations.
   ************* Beginning Zone Sizing Calculations
   ** Warning ** GetSurfaceData: Construction PROJECT PARTITION of interzone surface BLOCK1:ZONE2_PARTITION_5_0_0 does not have the same materials in the reverse order as the construction PROJECT PARTITION_REV of adjacent surface BLOCK1:ZONE1_PARTITION_3_0_10001
   **   ~~~   ** or the properties of the reversed layers are not correct due to differing layer front and back side values
   **   ~~~   ** ...but Nominal U values are similar, diff=[0.0000] ... simulation proceeds.
   **   ~~~   ** ...if the two zones are expected to have significantly different temperatures, the proper "reverse" construction should be created.
   **   ~~~   ** ...this problem for this pair will not be reported again.
   ** Warning ** GetSurfaceData: Entered Zone Floor Areas differ from calculated Zone Floor Area(s).
   **   ~~~   ** ...use Output:Diagnostics,DisplayExtraWarnings; to show more details on individual zones.
   ************* Note that the following warning(s) may/will occur if you have not enclosed your zone completely.
   ** Warning ** Entered Zone Volumes differ from calculated zone volume(s).
   **   ~~~   ** ...use Output:Diagnostics,DisplayExtraWarnings; to show more details on individual zones.
   ** Warning ** CheckUsedConstructions: There are 5 nominally unused constructions in input.
   **   ~~~   ** For explicit details on each unused construction, use Output:Diagnostics,DisplayExtraWarnings;
   ** Warning ** Calculated design cooling load for zone=BLOCK1:ZONE2 is zero.
   **   ~~~   ** Check Sizing:Zone and ZoneControl:Thermostat inputs.
   ** Warning ** Calculated design heating load for zone=BLOCK1:ZONE2 is zero.
   **   ~~~   ** Check Sizing:Zone and ZoneControl:Thermostat inputs.
   ** Warning ** Calculated design cooling load for zone=BLOCK1:ZONE1 is zero.
   **   ~~~   ** Check Sizing:Zone and ZoneControl:Thermostat inputs.
   ** Warning ** Calculated design heating load for zone=BLOCK1:ZONE1 is zero.
   **   ~~~   ** Check Sizing:Zone and ZoneControl:Thermostat inputs.
   ** Warning ** Calculated design cooling load for zone=BLOCK2:ZONE2 is zero.
   **   ~~~   ** Check Sizing:Zone and ZoneControl:Thermostat inputs.
   ** Warning ** Calculated design heating load for zone=BLOCK2:ZONE2 is zero.
   **   ~~~   ** Check Sizing:Zone and ZoneControl:Thermostat inputs.
   ** Warning ** Calculated design cooling load for zone=BLOCK2:ZONE1 is zero.
   **   ~~~   ** Check Sizing:Zone and ZoneControl:Thermostat inputs.
   ** Warning ** Calculated design heating load for zone=BLOCK2:ZONE1 is zero.
   **   ~~~   ** Check Sizing:Zone and ZoneControl:Thermostat inputs.
   ** Warning ** GetVRFInput: AirConditioner:VariableRefrigerantFlow="VRF OUTDOOR UNIT_BLOCK1:ZONE2" curve values
   **   ~~~   ** ... Cooling Capacity Ratio Modifier Function of Low Temperature Curve Name = VRFCOOLCAPFT output is not equal to 1.0 (+ or - 10%) at rated conditions.
   **   ~~~   ** ... Curve output at rated conditions = 1.136
   ** Warning ** AirConditioner:VariableRefrigerantFlow = "VRF OUTDOOR UNIT_BLOCK1:ZONE2", Minimum Condenser Inlet Node Temperature in Heat Recovery Mode is less than the minimum temperature in heat pump mode.
   **   ~~~   ** ...Minimum Condenser Inlet Node Temperature in Heat Recovery Mode = -9.99 C
   **   ~~~   ** ...Minimum Outdoor Temperature in Cooling Mode = -5.99 C
   **   ~~~   ** ...Minimum Outdoor Temperature in Heating Mode = -19.99 C
   **   ~~~   ** ...Minimum Outdoor Temperature in Heat Recovery Mode reset to greater of cooling or heating minimum temperature and simulation continues.
   **   ~~~   ** ... adjusted Minimum Condenser Inlet Node Temperature in Heat Recovery Mode = -5.99 C
   ** Warning ** GetVRFInput: AirConditioner:VariableRefrigerantFlow="VRF OUTDOOR UNIT_BLOCK1:ZONE1" curve values
   **   ~~~   ** ... Cooling Capacity Ratio Modifier Function of Low Temperature Curve Name = VRFCOOLCAPFT output is not equal to 1.0 (+ or - 10%) at rated conditions.
   **   ~~~   ** ... Curve output at rated conditions = 1.136
   ** Warning ** AirConditioner:VariableRefrigerantFlow = "VRF OUTDOOR UNIT_BLOCK1:ZONE1", Minimum Condenser Inlet Node Temperature in Heat Recovery Mode is less than the minimum temperature in heat pump mode.
   **   ~~~   ** ...Minimum Condenser Inlet Node Temperature in Heat Recovery Mode = -9.99 C
   **   ~~~   ** ...Minimum Outdoor Temperature in Cooling Mode = -5.99 C
   **   ~~~   ** ...Minimum Outdoor Temperature in Heating Mode = -19.99 C
   **   ~~~   ** ...Minimum Outdoor Temperature in Heat Recovery Mode reset to greater of cooling or heating minimum temperature and simulation continues.
   **   ~~~   ** ... adjusted Minimum Condenser Inlet Node Temperature in Heat Recovery Mode = -5.99 C
   ** Warning ** GetVRFInput: AirConditioner:VariableRefrigerantFlow="VRF OUTDOOR UNIT_BLOCK2:ZONE2" curve values
   **   ~~~   ** ... Cooling Capacity Ratio Modifier Function of Low Temperature Curve Name = VRFCOOLCAPFT output is not equal to 1.0 (+ or - 10%) at rated conditions.
   **   ~~~   ** ... Curve output at rated conditions = 1.136
   ** Warning ** AirConditioner:VariableRefrigerantFlow = "VRF OUTDOOR UNIT_BLOCK2:ZONE2", Minimum Condenser Inlet Node Temperature in Heat Recovery Mode is less than the minimum temperature in heat pump mode.
   **   ~~~   ** ...Minimum Condenser Inlet Node Temperature in Heat Recovery Mode = -9.99 C
   **   ~~~   ** ...Minimum Outdoor Temperature in Cooling Mode = -5.99 C
   **   ~~~   ** ...Minimum Outdoor Temperature in Heating Mode = -19.99 C
   **   ~~~   ** ...Minimum Outdoor Temperature in Heat Recovery Mode reset to greater of cooling or heating minimum temperature and simulation continues.
   **   ~~~   ** ... adjusted Minimum Condenser Inlet Node Temperature in Heat Recovery Mode = -5.99 C
   ** Warning ** GetVRFInput: AirConditioner:VariableRefrigerantFlow="VRF OUTDOOR UNIT_BLOCK2:ZONE1" curve values
   **   ~~~   ** ... Cooling Capacity Ratio Modifier Function of Low Temperature Curve Name = VRFCOOLCAPFT output is not equal to 1.0 (+ or - 10%) at rated conditions.
   **   ~~~   ** ... Curve output at rated conditions = 1.136
   ** Warning ** AirConditioner:VariableRefrigerantFlow = "VRF OUTDOOR UNIT_BLOCK2:ZONE1", Minimum Condenser Inlet Node Temperature in Heat Recovery Mode is less than the minimum temperature in heat pump mode.
   **   ~~~   ** ...Minimum Condenser Inlet Node Temperature in Heat Recovery Mode = -9.99 C
   **   ~~~   ** ...Minimum Outdoor Temperature in Cooling Mode = -5.99 C
   **   ~~~   ** ...Minimum Outdoor Temperature in Heating Mode = -19.99 C
   **   ~~~   ** ...Minimum Outdoor Temperature in Heat Recovery Mode reset to greater of cooling or heating minimum temperature and simulation continues.
   **   ~~~   ** ... adjusted Minimum Condenser Inlet Node Temperature in Heat Recovery Mode = -5.99 C
   ** Warning ** GetDXCoils: Coil:Cooling:DX:VariableRefrigerantFlow="BLOCK1:ZONE2 VRF INDOOR UNIT DX COOLING COIL" curve values
   **   ~~~   ** ... Cooling Capacity Ratio Modifier Function of Temperature Curve Name = VRFTUCOOLCAPFT output is not equal to 1.0 (+ or - 10%) at rated conditions.
   **   ~~~   ** ... Curve output at rated conditions = 1.136
   ** Warning ** GetDXCoils: Coil:Cooling:DX:VariableRefrigerantFlow="BLOCK1:ZONE1 VRF INDOOR UNIT DX COOLING COIL" curve values
   **   ~~~   ** ... Cooling Capacity Ratio Modifier Function of Temperature Curve Name = VRFTUCOOLCAPFT output is not equal to 1.0 (+ or - 10%) at rated conditions.
   **   ~~~   ** ... Curve output at rated conditions = 1.136
   ** Warning ** GetDXCoils: Coil:Cooling:DX:VariableRefrigerantFlow="BLOCK2:ZONE2 VRF INDOOR UNIT DX COOLING COIL" curve values
   **   ~~~   ** ... Cooling Capacity Ratio Modifier Function of Temperature Curve Name = VRFTUCOOLCAPFT output is not equal to 1.0 (+ or - 10%) at rated conditions.
   **   ~~~   ** ... Curve output at rated conditions = 1.136
   ** Warning ** GetDXCoils: Coil:Cooling:DX:VariableRefrigerantFlow="BLOCK2:ZONE1 VRF INDOOR UNIT DX COOLING COIL" curve values
   **   ~~~   ** ... Cooling Capacity Ratio Modifier Function of Temperature Curve Name = VRFTUCOOLCAPFT output is not equal to 1.0 (+ or - 10%) at rated conditions.
   **   ~~~   ** ... Curve output at rated conditions = 1.136
   ** Warning ** ZoneTerminalUnitList "VRF OUTDOOR UNIT_BLOCK1:ZONE2 ZONE LIST"
   ** Warning ** ...Only 1 Terminal Unit connected to system and heat recovery is selected.
   **   ~~~   ** ...Heat recovery will be disabled.
   ************* Testing Individual Branch Integrity
   ************* All Branches passed integrity testing
   ************* Testing Individual Supply Air Path Integrity
   ************* All Supply Air Paths passed integrity testing
   ************* Testing Individual Return Air Path Integrity
   ************* All Return Air Paths passed integrity testing
   ************* No node connection errors were found.
   ************* Beginning Simulation
   ** Warning ** In Output:Table:Monthly 'EndUseEnergyConsumptionOtherFuelsMonthly' invalid Variable or Meter Name 'EXTERIOREQUIPMENT:OTHERFUEL1'
   ** Warning ** In Output:Table:Monthly 'EndUseEnergyConsumptionOtherFuelsMonthly' invalid Variable or Meter Name 'COOLING:OTHERFUEL1'
   ** Warning ** In Output:Table:Monthly 'EndUseEnergyConsumptionOtherFuelsMonthly' invalid Variable or Meter Name 'HEATING:OTHERFUEL1'
   ** Warning ** In Output:Table:Monthly 'EndUseEnergyConsumptionOtherFuelsMonthly' invalid Variable or Meter Name 'WATERSYSTEMS:OTHERFUEL1'
   ** Warning ** In Output:Table:Monthly 'EndUseEnergyConsumptionOtherFuelsMonthly' invalid Variable or Meter Name 'COGENERATION:OTHERFUEL1'
   ** Warning ** In Output:Table:Monthly 'EndUseEnergyConsumptionOtherFuelsMonthly' invalid Variable or Meter Name 'EXTERIOREQUIPMENT:OTHERFUEL2'
   ** Warning ** In Output:Table:Monthly 'EndUseEnergyConsumptionOtherFuelsMonthly' invalid Variable or Meter Name 'COOLING:OTHERFUEL2'
   ** Warning ** In Output:Table:Monthly 'EndUseEnergyConsumptionOtherFuelsMonthly' invalid Variable or Meter Name 'HEATING:OTHERFUEL2'
   ** Warning ** In Output:Table:Monthly 'EndUseEnergyConsumptionOtherFuelsMonthly' invalid Variable or Meter Name 'WATERSYSTEMS:OTHERFUEL2'
   ** Warning ** In Output:Table:Monthly 'EndUseEnergyConsumptionOtherFuelsMonthly' invalid Variable or Meter Name 'COGENERATION:OTHERFUEL2'
   ** Warning ** In Output:Table:Monthly 'PeakEnergyEndUseOtherFuelsMonthly' invalid Variable or Meter Name 'EXTERIOREQUIPMENT:OTHERFUEL1'
   ** Warning ** In Output:Table:Monthly 'PeakEnergyEndUseOtherFuelsMonthly' invalid Variable or Meter Name 'COOLING:OTHERFUEL1'
   ** Warning ** In Output:Table:Monthly 'PeakEnergyEndUseOtherFuelsMonthly' invalid Variable or Meter Name 'HEATING:OTHERFUEL1'
   ** Warning ** In Output:Table:Monthly 'PeakEnergyEndUseOtherFuelsMonthly' invalid Variable or Meter Name 'WATERSYSTEMS:OTHERFUEL1'
   ** Warning ** In Output:Table:Monthly 'PeakEnergyEndUseOtherFuelsMonthly' invalid Variable or Meter Name 'COGENERATION:OTHERFUEL1'
   ** Warning ** In Output:Table:Monthly 'PeakEnergyEndUseOtherFuelsMonthly' invalid Variable or Meter Name 'EXTERIOREQUIPMENT:OTHERFUEL2'
   ** Warning ** In Output:Table:Monthly 'PeakEnergyEndUseOtherFuelsMonthly' invalid Variable or Meter Name 'COOLING:OTHERFUEL2'
   ** Warning ** In Output:Table:Monthly 'PeakEnergyEndUseOtherFuelsMonthly' invalid Variable or Meter Name 'HEATING:OTHERFUEL2'
   ** Warning ** In Output:Table:Monthly 'PeakEnergyEndUseOtherFuelsMonthly' invalid Variable or Meter Name 'WATERSYSTEMS:OTHERFUEL2'
   ** Warning ** In Output:Table:Monthly 'PeakEnergyEndUseOtherFuelsMonthly' invalid Variable or Meter Name 'COGENERATION:OTHERFUEL2'
   ** Warning ** Processing Monthly Tabular Reports: Variable names not valid for this simulation
   **   ~~~   ** ...use Output:Diagnostics,DisplayExtraWarnings; to show more details on individual variables.
   ** Warning ** Temperature out of range [-100. to 200.] (PsyPsatFnTemp)
   **   ~~~   **  Routine=PsyTwbFnTdbWPb, Environment=UNTITLED (O1-O1:31-12), at Simulation time=03/03 12:00 - 12:15
   **   ~~~   **  Input Temperature=-114.99
   ** Warning ** Coil:Cooling:DX:VariableRefrigerantFlow "BLOCK2:ZONE2 VRF INDOOR UNIT DX COOLING COIL" - Air volume flow rate per watt of rated total cooling capacity is out of range at 6.714E-005 m3/s/W.
   **   ~~~   **  Environment=UNTITLED (O1-O1:31-12), at Simulation time=06/22 09:50 - 10:00
   **   ~~~   ** ...Expected range for VolumeFlowPerRatedTotalCapacity=[2.684E-005--6.713E-005]
   **   ~~~   ** ...Possible causes include inconsistent air flow rates in system components,
   **   ~~~   ** ...or mixing manual inputs with autosize inputs. Also check the following values and calculations.
   **   ~~~   ** ...Volume Flow Rate per Rated Total Capacity = Volume Flow Rate / Rated Total Capacity
   **   ~~~   ** ...Volume Flow Rate = Air Mass Flow Rate / Air Density
   **   ~~~   ** ...Data used for calculations:
   **   ~~~   ** ...Rated Total Capacity = 632.66 W.
   **   ~~~   ** ...Volume Flow Rate = Air Mass Flow Rate / Air Density
   **   ~~~   ** ...Volume Flow Rate   = 4.24739573E-002 m3/s.
   **   ~~~   ** ...Air Mass Flow Rate = 4.29390443E-002 kg/s.
   **   ~~~   ** ...Air Density        = 1.01094993 kg/m3.
   **   ~~~   ** ...Data used for air density calculation:
   **   ~~~   ** ...Outdoor Air Pressure     = 94700.000 Pa.
   **   ~~~   ** ...Inlet Air Dry-Bulb Temp  = 44.816 C.
   **   ~~~   ** ...Inlet Air Humidity Ratio = 1.64811484E-002 kgWater/kgDryAir.
   ** Warning ** Coil:Cooling:DX:VariableRefrigerantFlow "BLOCK2:ZONE1 VRF INDOOR UNIT DX COOLING COIL" - Air volume flow rate per watt of rated total cooling capacity is out of range at 6.724E-005 m3/s/W.
   **   ~~~   **  Environment=UNTITLED (O1-O1:31-12), at Simulation time=06/22 10:00 - 10:30
   **   ~~~   ** ...Expected range for VolumeFlowPerRatedTotalCapacity=[2.684E-005--6.713E-005]
   **   ~~~   ** ...Possible causes include inconsistent air flow rates in system components,
   **   ~~~   ** ...or mixing manual inputs with autosize inputs. Also check the following values and calculations.
   **   ~~~   ** ...Volume Flow Rate per Rated Total Capacity = Volume Flow Rate / Rated Total Capacity
   **   ~~~   ** ...Volume Flow Rate = Air Mass Flow Rate / Air Density
   **   ~~~   ** ...Data used for calculations:
   **   ~~~   ** ...Rated Total Capacity = 234.61 W.
   **   ~~~   ** ...Volume Flow Rate = Air Mass Flow Rate / Air Density
   **   ~~~   ** ...Volume Flow Rate   = 1.57744671E-002 m3/s.
   **   ~~~   ** ...Air Mass Flow Rate = 1.59232179E-002 kg/s.
   **   ~~~   ** ...Air Density        = 1.00942984 kg/m3.
   **   ~~~   ** ...Data used for air density calculation:
   **   ~~~   ** ...Outdoor Air Pressure     = 94650.000 Pa.
   **   ~~~   ** ...Inlet Air Dry-Bulb Temp  = 44.689 C.
   **   ~~~   ** ...Inlet Air Humidity Ratio = 1.73598034E-002 kgWater/kgDryAir.
   ** Warning ** Coil:Cooling:DX:VariableRefrigerantFlow "BLOCK1:ZONE1 VRF INDOOR UNIT DX COOLING COIL" - Air volume flow rate per watt of rated total cooling capacity is out of range at 6.714E-005 m3/s/W.
   **   ~~~   **  Environment=UNTITLED (O1-O1:31-12), at Simulation time=06/22 12:00 - 12:30
   **   ~~~   ** ...Expected range for VolumeFlowPerRatedTotalCapacity=[2.684E-005--6.713E-005]
   **   ~~~   ** ...Possible causes include inconsistent air flow rates in system components,
   **   ~~~   ** ...or mixing manual inputs with autosize inputs. Also check the following values and calculations.
   **   ~~~   ** ...Volume Flow Rate per Rated Total Capacity = Volume Flow Rate / Rated Total Capacity
   **   ~~~   ** ...Volume Flow Rate = Air Mass Flow Rate / Air Density
   **   ~~~   ** ...Data used for calculations:
   **   ~~~   ** ...Rated Total Capacity = 633.97 W.
   **   ~~~   ** ...Volume Flow Rate = Air Mass Flow Rate / Air Density
   **   ~~~   ** ...Volume Flow Rate   = 4.25625993E-002 m3/s.
   **   ~~~   ** ...Air Mass Flow Rate = 4.30275443E-002 kg/s.
   **   ~~~   ** ...Air Density        = 1.01092379 kg/m3.
   **   ~~~   ** ...Data used for air density calculation:
   **   ~~~   ** ...Outdoor Air Pressure     = 94550.000 Pa.
   **   ~~~   ** ...Inlet Air Dry-Bulb Temp  = 45.442 C.
   **   ~~~   ** ...Inlet Air Humidity Ratio = 1.42327323E-002 kgWater/kgDryAir.
   ** Warning ** Coil:Cooling:DX:VariableRefrigerantFlow "BLOCK1:ZONE2 VRF INDOOR UNIT DX COOLING COIL" - Air volume flow rate per watt of rated total cooling capacity is out of range at 6.719E-005 m3/s/W.
   **   ~~~   **  Environment=UNTITLED (O1-O1:31-12), at Simulation time=06/22 15:30 - 16:00
   **   ~~~   ** ...Expected range for VolumeFlowPerRatedTotalCapacity=[2.684E-005--6.713E-005]
   **   ~~~   ** ...Possible causes include inconsistent air flow rates in system components,
   **   ~~~   ** ...or mixing manual inputs with autosize inputs. Also check the following values and calculations.
   **   ~~~   ** ...Volume Flow Rate per Rated Total Capacity = Volume Flow Rate / Rated Total Capacity
   **   ~~~   ** ...Volume Flow Rate = Air Mass Flow Rate / Air Density
   **   ~~~   ** ...Data used for calculations:
   **   ~~~   ** ...Rated Total Capacity = 233.31 W.
   **   ~~~   ** ...Volume Flow Rate = Air Mass Flow Rate / Air Density
   **   ~~~   ** ...Volume Flow Rate   = 1.56766891E-002 m3/s.
   **   ~~~   ** ...Air Mass Flow Rate = 1.58347179E-002 kg/s.
   **   ~~~   ** ...Air Density        = 1.01008050 kg/m3.
   **   ~~~   ** ...Data used for air density calculation:
   **   ~~~   ** ...Outdoor Air Pressure     = 94300.000 Pa.
   **   ~~~   ** ...Inlet Air Dry-Bulb Temp  = 45.120 C.
   **   ~~~   ** ...Inlet Air Humidity Ratio = 1.37235052E-002 kgWater/kgDryAir.
   ************* Simulation Error Summary *************
   ** Warning ** The following Report Variables were requested but not generated -- check.rdd file
   **   ~~~   ** Either the IDF did not contain these elements, the variable name is misspelled,
   **   ~~~   ** or the requested variable is an advanced output which requires Output : Diagnostics, DisplayAdvancedReportVariables;
   ************* Key=*, VarName=FACILITY TOTAL HVAC ELECTRIC DEMAND POWER, Frequency=Hourly
   ************* Key=BLOCK1_ZONE2 VRF Indoor Unit DX Cooling Coil, VarName=COOLING COIL TOTAL COOLING RATE, Frequency=Hourly
   ************* Key=BLOCK1_ZONE2 VRF Indoor Unit DX Heating Coil, VarName=HEATING COIL HEATING RATE, Frequency=Hourly
   ************* Key=BLOCK1_ZONE1 VRF Indoor Unit DX Cooling Coil, VarName=COOLING COIL TOTAL COOLING RATE, Frequency=Hourly
   ************* Key=BLOCK1_ZONE1 VRF Indoor Unit DX Heating Coil, VarName=HEATING COIL HEATING RATE, Frequency=Hourly
   ************* Key=BLOCK2_ZONE2 VRF Indoor Unit DX Cooling Coil, VarName=COOLING COIL TOTAL COOLING RATE, Frequency=Hourly
   ************* Key=BLOCK2_ZONE2 VRF Indoor Unit DX Heating Coil, VarName=HEATING COIL HEATING RATE, Frequency=Hourly
   ************* Key=BLOCK2_ZONE1 VRF Indoor Unit DX Cooling Coil, VarName=COOLING COIL TOTAL COOLING RATE, Frequency=Hourly
   ************* Key=BLOCK2_ZONE1 VRF Indoor Unit DX Heating Coil, VarName=HEATING COIL HEATING RATE, Frequency=Hourly
   ** Severe  ** Orphaned ZoneHVAC object found.  This was object never referenced in the input, and was not used.
   **   ~~~   **  -- Object type: ZoneHVAC:IdealLoadsAirSystem
   **   ~~~   **  -- Object name: Block1:Zone1 Ideal Loads Air
   ** Severe  ** Orphaned ZoneHVAC object found.  This was object never referenced in the input, and was not used.
   **   ~~~   **  -- Object type: ZoneHVAC:IdealLoadsAirSystem
   **   ~~~   **  -- Object name: Block1:Zone2 Ideal Loads Air
   ** Severe  ** Orphaned ZoneHVAC object found.  This was object never referenced in the input, and was not used.
   **   ~~~   **  -- Object type: ZoneHVAC:IdealLoadsAirSystem
   **   ~~~   **  -- Object name: Block2:Zone1 Ideal Loads Air
   ** Severe  ** Orphaned ZoneHVAC object found.  This was object never referenced in the input, and was not used.
   **   ~~~   **  -- Object type: ZoneHVAC:IdealLoadsAirSystem
   **   ~~~   **  -- Object name: Block2:Zone2 Ideal Loads Air
   ************* There are 5 unused objects in input.
   ************* Use Output:Diagnostics,DisplayUnusedObjects; to see them.
   ************* There are 31 unused schedules in input.
   ************* There are 5 unused week schedules in input.
   ************* There are 7 unused day schedules in input.
   ************* Use Output:Diagnostics,DisplayUnusedSchedules; to see them.
   *************
   ************* ===== Recurring Error Summary =====
   ************* The following recurring error messages occurred.
   *************
   *************  ** Warning ** Temperature out of range [-100. to 200.] (PsyPsatFnTemp)
   *************  **   ~~~   **   This error occurred 2 total times;
   *************  **   ~~~   **   during Warmup 0 times;
   *************  **   ~~~   **   during Sizing 0 times.
   *************  **   ~~~   **   Max=-114.990616 C  Min=-413.092636 C
   *************
   *************  ** Warning ** Coil:Cooling:DX:VariableRefrigerantFlow "BLOCK2:ZONE2 VRF INDOOR UNIT DX COOLING COIL" - Air volume flow rate per watt of rated total cooling capacity is out of range error continues...
   *************  **   ~~~   **   This error occurred 9957 total times;
   *************  **   ~~~   **   during Warmup 0 times;
   *************  **   ~~~   **   during Sizing 0 times.
   *************  **   ~~~   **   Max=7.029002E-005  Min=6.713033E-005
   *************
   *************  ** Warning ** Coil:Cooling:DX:VariableRefrigerantFlow "BLOCK2:ZONE1 VRF INDOOR UNIT DX COOLING COIL" - Air volume flow rate per watt of rated total cooling capacity is out of range error continues...
   *************  **   ~~~   **   This error occurred 10500 total times;
   *************  **   ~~~   **   during Warmup 0 times;
   *************  **   ~~~   **   during Sizing 0 times.
   *************  **   ~~~   **   Max=7.029851E-005  Min=6.713001E-005
   *************
   *************  ** Warning ** Coil:Cooling:DX:VariableRefrigerantFlow "BLOCK1:ZONE1 VRF INDOOR UNIT DX COOLING COIL" - Air volume flow rate per watt of rated total cooling capacity is out of range error continues...
   *************  **   ~~~   **   This error occurred 7479 total times;
   *************  **   ~~~   **   during Warmup 0 times;
   *************  **   ~~~   **   during Sizing 0 times.
   *************  **   ~~~   **   Max=6.946805E-005  Min=6.713004E-005
   *************
   *************  ** Warning ** Coil:Cooling:DX:VariableRefrigerantFlow "BLOCK1:ZONE2 VRF INDOOR UNIT DX COOLING COIL" - Air volume flow rate per watt of rated total cooling capacity is out of range error continues...
   *************  **   ~~~   **   This error occurred 4113 total times;
   *************  **   ~~~   **   during Warmup 0 times;
   *************  **   ~~~   **   during Sizing 0 times.
   *************  **   ~~~   **   Max=6.871124E-005  Min=6.713007E-005
   *************
   *************
   ************* ===== Final Error Summary =====
   ************* The following error categories occurred.  Consider correcting or noting.
   ************* Nominally Unused Constructions
   ************* ..The nominally unused constructions warning is provided to alert you to potential conditions that can cause
   ************* ..extra time during simulation. Each construction is calculated by the algorithm indicated in the HeatBalanceAlgorithm
   ************* ..object. You may remove the constructions indicated (when you use the DisplayExtraWarnings option).
   *************
   ************* EnergyPlus Warmup Error Summary. During Warmup: 0 Warning; 0 Severe Errors.
   ************* EnergyPlus Sizing Error Summary. During Sizing: 26 Warning; 0 Severe Errors.
   ************* EnergyPlus Completed Successfully-- 32100 Warning; 4 Severe Errors; Elapsed Time=00hr 00min 34.28sec
