  0
SECTION
  2
ENTITIES
999
DXF created from EnergyPlus
999
Program Version,EnergyPlus, Version 9.6.0-f420c06a69, YMD=2022.04.20 14:29
999
Polygon Action,TRIANGULATE3DFACE
999
Color Scheme,Default
999
Text - True North
  0
TEXT
  8
1
  6
Continuous
 62
  3
 10
      -20.54925
 20
       -2.03650
 30
        0.10000
 40
 .25
  1
True North
 41
 0.0
  7
MONOTXT
210
0.0
220
0.0
230
1.0
999
Text - Building Title
  0
TEXT
  8
1
  6
Continuous
 62
  3
 10
      -23.54925
 20
       -6.03650
 30
        0.10000
 40
 .4
  1
Building - Building
 41
 0.0
  7
MONOTXT
210
0.0
220
0.0
230
1.0
999
North Arrow Stem
  0
3DFACE
  8
1
 62
  3
 10
      -19.54925
 20
       -2.03650
 30
        0.10000
 11
      -19.54925
 21
       -2.03650
 31
        0.00000
 12
      -19.54925
 22
       -5.03650
 32
        0.00000
 13
      -19.54925
 23
       -5.03650
 33
        0.10000
999
North Arrow Head 1
  0
3DFACE
  8
1
 62
  3
 10
      -19.54925
 20
       -2.03650
 30
        0.10000
 11
      -19.54925
 21
       -2.03650
 31
        0.00000
 12
      -20.04925
 22
       -2.90253
 32
        0.00000
 13
      -20.04925
 23
       -2.90253
 33
        0.10000
999
North Arrow Head 2
  0
3DFACE
  8
1
 62
  3
 10
      -19.54925
 20
       -2.03650
 30
        0.10000
 11
      -19.54925
 21
       -2.03650
 31
        0.00000
 12
      -19.04925
 22
       -2.90253
 32
        0.00000
 13
      -19.04925
 23
       -2.90253
 33
        0.10000
999
North Arrow Side 1
  0
3DFACE
  8
1
 62
  3
 10
      -20.04925
 20
       -0.53650
 30
        0.10000
 11
      -20.04925
 21
       -0.53650
 31
        0.00000
 12
      -20.04925
 22
       -1.53650
 32
        0.00000
 13
      -20.04925
 23
       -1.53650
 33
        0.10000
999
North Arrow Side 2
  0
3DFACE
  8
1
 62
  3
 10
      -20.04925
 20
       -0.53650
 30
        0.10000
 11
      -20.04925
 21
       -0.53650
 31
        0.00000
 12
      -19.04925
 22
       -1.53650
 32
        0.00000
 13
      -19.04925
 23
       -1.53650
 33
        0.10000
999
North Arrow Side 3
  0
3DFACE
  8
1
 62
  3
 10
      -19.04925
 20
       -0.53650
 30
        0.10000
 11
      -19.04925
 21
       -0.53650
 31
        0.00000
 12
      -19.04925
 22
       -1.53650
 32
        0.00000
 13
      -19.04925
 23
       -1.53650
 33
        0.10000
999
Zone Names
999
Zone=1:BLOCK1_ZONE2
999
Zone=2:BLOCK1_ZONE1
999
BLOCK1:ZONE2:BLOCK1:ZONE2_WALL_2_0_0
  0
3DFACE
  8
BLOCK1_ZONE2
 62
 43
 10
       10.45075
 20
        4.96350
 30
        3.50000
 11
       10.45075
 21
        4.96350
 31
        0.00000
 12
       10.45075
 22
       14.96350
 32
        0.00000
 13
       10.45075
 23
       14.96350
 33
        3.50000
999
BLOCK1:ZONE2:BLOCK1:ZONE2_WALL_3_0_0
  0
3DFACE
  8
BLOCK1_ZONE2
 62
 43
 10
       10.45075
 20
       14.96350
 30
        3.50000
 11
       10.45075
 21
       14.96350
 31
        0.00000
 12
       -9.54925
 22
       14.96350
 32
        0.00000
 13
       -9.54925
 23
       14.96350
 33
        3.50000
999
BLOCK1:ZONE2:BLOCK1:ZONE2_WALL_3_0_0_0_0_0_WIN
  0
3DFACE
  8
BLOCK1_ZONE2
 62
143
 10
        2.67583
 20
       14.96350
 30
        2.26000
 11
        2.67583
 21
       14.96350
 31
        0.84000
 12
       -1.77433
 22
       14.96350
 32
        0.84000
 13
       -1.77433
 23
       14.96350
 33
        2.26000
999
BLOCK1:ZONE2:BLOCK1:ZONE2_WALL_4_0_0
  0
3DFACE
  8
BLOCK1_ZONE2
 62
 43
 10
       -9.54925
 20
       14.96350
 30
        3.50000
 11
       -9.54925
 21
       14.96350
 31
        0.00000
 12
       -9.54925
 22
        4.96350
 32
        0.00000
 13
       -9.54925
 23
        4.96350
 33
        3.50000
999
BLOCK1:ZONE2:BLOCK1:ZONE2_PARTITION_5_0_0
  0
3DFACE
  8
BLOCK1_ZONE2
 62
 43
 10
       -9.54925
 20
        4.96350
 30
        3.50000
 11
       -9.54925
 21
        4.96350
 31
        0.00000
 12
       10.45075
 22
        4.96350
 32
        0.00000
 13
       10.45075
 23
        4.96350
 33
        3.50000
999
BLOCK1:ZONE2:BLOCK1:ZONE2_GROUNDFLOOR_0_0_0
  0
3DFACE
  8
BLOCK1_ZONE2
 62
  8
 10
       10.45075
 20
       14.96350
 30
        0.00000
 11
       10.45075
 21
        4.96350
 31
        0.00000
 12
       -9.54925
 22
        4.96350
 32
        0.00000
 13
       -9.54925
 23
       14.96350
 33
        0.00000
999
BLOCK1:ZONE2:BLOCK1:ZONE2_ROOF_1_0_0
  0
3DFACE
  8
BLOCK1_ZONE2
 62
 15
 10
       -9.54925
 20
       14.96350
 30
        3.50000
 11
       -9.54925
 21
        4.96350
 31
        3.50000
 12
       10.45075
 22
        4.96350
 32
        3.50000
 13
       10.45075
 23
       14.96350
 33
        3.50000
999
BLOCK1:ZONE1:BLOCK1:ZONE1_PARTITION_3_0_10000
  0
3DFACE
  8
BLOCK1_ZONE1
 62
 43
 10
       10.45075
 20
        4.96350
 30
        3.50000
 11
       10.45075
 21
        4.96350
 31
        0.00000
 12
       -9.54925
 22
        4.96350
 32
        0.00000
 13
       -9.54925
 23
        4.96350
 33
        3.50000
999
BLOCK1:ZONE1:BLOCK1:ZONE1_WALL_2_0_0
  0
3DFACE
  8
BLOCK1_ZONE1
 62
 43
 10
       10.45075
 20
       -5.03650
 30
        3.50000
 11
       10.45075
 21
       -5.03650
 31
        0.00000
 12
       10.45075
 22
        4.96350
 32
        0.00000
 13
       10.45075
 23
        4.96350
 33
        3.50000
999
BLOCK1:ZONE1:BLOCK1:ZONE1_WALL_4_0_0
  0
3DFACE
  8
BLOCK1_ZONE1
 62
 43
 10
       -9.54925
 20
        4.96350
 30
        3.50000
 11
       -9.54925
 21
        4.96350
 31
        0.00000
 12
       -9.54925
 22
       -5.03650
 32
        0.00000
 13
       -9.54925
 23
       -5.03650
 33
        3.50000
999
BLOCK1:ZONE1:BLOCK1:ZONE1_WALL_5_0_0
  0
3DFACE
  8
BLOCK1_ZONE1
 62
 43
 10
       -9.54925
 20
       -5.03650
 30
        3.50000
 11
       -9.54925
 21
       -5.03650
 31
        0.00000
 12
       10.45075
 22
       -5.03650
 32
        0.00000
 13
       10.45075
 23
       -5.03650
 33
        3.50000
999
BLOCK1:ZONE1:BLOCK1:ZONE1_WALL_5_0_0_0_0_0_WIN
  0
3DFACE
  8
BLOCK1_ZONE1
 62
143
 10
       -1.77433
 20
       -5.03650
 30
        2.26000
 11
       -1.77433
 21
       -5.03650
 31
        0.84000
 12
        2.67583
 22
       -5.03650
 32
        0.84000
 13
        2.67583
 23
       -5.03650
 33
        2.26000
999
BLOCK1:ZONE1:BLOCK1:ZONE1_GROUNDFLOOR_0_0_0
  0
3DFACE
  8
BLOCK1_ZONE1
 62
  8
 10
       10.45075
 20
        4.96350
 30
        0.00000
 11
       10.45075
 21
       -5.03650
 31
        0.00000
 12
       -9.54925
 22
       -5.03650
 32
        0.00000
 13
       -9.54925
 23
        4.96350
 33
        0.00000
999
BLOCK1:ZONE1:BLOCK1:ZONE1_ROOF_1_0_0
  0
3DFACE
  8
BLOCK1_ZONE1
 62
 15
 10
       -9.54925
 20
        4.96350
 30
        3.50000
 11
       -9.54925
 21
       -5.03650
 31
        3.50000
 12
       10.45075
 22
       -5.03650
 32
        3.50000
 13
       10.45075
 23
        4.96350
 33
        3.50000
  0
ENDSEC
  0
EOF
