  0
SECTION
  2
ENTITIES
999
DXF created from EnergyPlus
999
Program Version,EnergyPlus, Version 9.6.0-f420c06a69, YMD=2022.09.29 14:54
999
Polygon Action,TRIANGULATE3DFACE
999
Color Scheme,Default
999
Text - True North
  0
TEXT
  8
1
  6
Continuous
 62
  3
 10
       -9.34551
 20
        4.63998
 30
        0.10000
 40
 .25
  1
True North
 41
 0.0
  7
MONOTXT
210
0.0
220
0.0
230
1.0
999
Text - Building Title
  0
TEXT
  8
1
  6
Continuous
 62
  3
 10
      -12.34551
 20
        0.63998
 30
        0.10000
 40
 .4
  1
Building - Building
 41
 0.0
  7
MONOTXT
210
0.0
220
0.0
230
1.0
999
North Arrow Stem
  0
3DFACE
  8
1
 62
  3
 10
       -8.34551
 20
        4.63998
 30
        0.10000
 11
       -8.34551
 21
        4.63998
 31
        0.00000
 12
       -8.34551
 22
        1.63998
 32
        0.00000
 13
       -8.34551
 23
        1.63998
 33
        0.10000
999
North Arrow Head 1
  0
3DFACE
  8
1
 62
  3
 10
       -8.34551
 20
        4.63998
 30
        0.10000
 11
       -8.34551
 21
        4.63998
 31
        0.00000
 12
       -8.84551
 22
        3.77396
 32
        0.00000
 13
       -8.84551
 23
        3.77396
 33
        0.10000
999
North Arrow Head 2
  0
3DFACE
  8
1
 62
  3
 10
       -8.34551
 20
        4.63998
 30
        0.10000
 11
       -8.34551
 21
        4.63998
 31
        0.00000
 12
       -7.84551
 22
        3.77396
 32
        0.00000
 13
       -7.84551
 23
        3.77396
 33
        0.10000
999
North Arrow Side 1
  0
3DFACE
  8
1
 62
  3
 10
       -8.84551
 20
        6.13998
 30
        0.10000
 11
       -8.84551
 21
        6.13998
 31
        0.00000
 12
       -8.84551
 22
        5.13998
 32
        0.00000
 13
       -8.84551
 23
        5.13998
 33
        0.10000
999
North Arrow Side 2
  0
3DFACE
  8
1
 62
  3
 10
       -8.84551
 20
        6.13998
 30
        0.10000
 11
       -8.84551
 21
        6.13998
 31
        0.00000
 12
       -7.84551
 22
        5.13998
 32
        0.00000
 13
       -7.84551
 23
        5.13998
 33
        0.10000
999
North Arrow Side 3
  0
3DFACE
  8
1
 62
  3
 10
       -7.84551
 20
        6.13998
 30
        0.10000
 11
       -7.84551
 21
        6.13998
 31
        0.00000
 12
       -7.84551
 22
        5.13998
 32
        0.00000
 13
       -7.84551
 23
        5.13998
 33
        0.10000
999
Zone Names
999
Zone=1:BLOCK1_ZONE2
999
Zone=2:BLOCK1_ZONE1
999
Zone=3:BLOCK2_ZONE2
999
Zone=4:BLOCK2_ZONE1
999
BLOCK1:ZONE2:BLOCK1:ZONE2_WALL_2_0_0
  0
3DFACE
  8
BLOCK1_ZONE2
 62
 43
 10
        6.65449
 20
        8.94985
 30
        3.50000
 11
        6.65449
 21
        8.94985
 31
        0.00000
 12
        6.65449
 22
       11.63998
 32
        0.00000
 13
        6.65449
 23
       11.63998
 33
        3.50000
999
BLOCK1:ZONE2:BLOCK1:ZONE2_WALL_2_0_0_0_0_0_WIN
  0
3DFACE
  8
BLOCK1_ZONE2
 62
143
 10
        6.65449
 20
        9.41325
 30
        2.26000
 11
        6.65449
 21
        9.41325
 31
        0.84000
 12
        6.65449
 22
       10.95909
 32
        0.84000
 13
        6.65449
 23
       10.95909
 33
        2.26000
999
BLOCK1:ZONE2:BLOCK1:ZONE2_WALL_3_0_0
  0
3DFACE
  8
BLOCK1_ZONE2
 62
 43
 10
        6.65449
 20
       11.63998
 30
        3.50000
 11
        6.65449
 21
       11.63998
 31
        0.00000
 12
        1.65449
 22
       11.63998
 32
        0.00000
 13
        1.65449
 23
       11.63998
 33
        3.50000
999
BLOCK1:ZONE2:BLOCK1:ZONE2_WALL_3_0_0_0_0_0_WIN
  0
3DFACE
  8
BLOCK1_ZONE2
 62
143
 10
        5.65974
 20
       11.63998
 30
        2.26000
 11
        5.65974
 21
       11.63998
 31
        0.84000
 12
        2.64924
 22
       11.63998
 32
        0.84000
 13
        2.64924
 23
       11.63998
 33
        2.26000
999
BLOCK1:ZONE2:BLOCK1:ZONE2_WALL_4_0_0
  0
3DFACE
  8
BLOCK1_ZONE2
 62
 43
 10
        1.65449
 20
       11.63998
 30
        3.50000
 11
        1.65449
 21
       11.63998
 31
        0.00000
 12
        1.65449
 22
        8.94985
 32
        0.00000
 13
        1.65449
 23
        8.94985
 33
        3.50000
999
BLOCK1:ZONE2:BLOCK1:ZONE2_WALL_4_0_0_0_0_0_WIN
  0
3DFACE
  8
BLOCK1_ZONE2
 62
143
 10
        1.65449
 20
       10.95909
 30
        2.26000
 11
        1.65449
 21
       10.95909
 31
        0.84000
 12
        1.65449
 22
        9.41325
 32
        0.84000
 13
        1.65449
 23
        9.41325
 33
        2.26000
999
BLOCK1:ZONE2:BLOCK1:ZONE2_PARTITION_5_0_0
  0
3DFACE
  8
BLOCK1_ZONE2
 62
 43
 10
        1.65449
 20
        8.94985
 30
        3.50000
 11
        1.65449
 21
        8.94985
 31
        0.00000
 12
        6.65449
 22
        8.94985
 32
        0.00000
 13
        6.65449
 23
        8.94985
 33
        3.50000
999
BLOCK1:ZONE2:BLOCK1:ZONE2_GROUNDFLOOR_0_0_0
  0
3DFACE
  8
BLOCK1_ZONE2
 62
  8
 10
        6.65449
 20
       11.63998
 30
        0.00000
 11
        6.65449
 21
        8.94985
 31
        0.00000
 12
        1.65449
 22
        8.94985
 32
        0.00000
 13
        1.65449
 23
       11.63998
 33
        0.00000
999
BLOCK1:ZONE2:BLOCK1:ZONE2_CEILING_1_0_0
  0
3DFACE
  8
BLOCK1_ZONE2
 62
 15
 10
        1.65449
 20
       11.63998
 30
        3.50000
 11
        1.65449
 21
        8.94985
 31
        3.50000
 12
        6.65449
 22
        8.94985
 32
        3.50000
 13
        6.65449
 23
       11.63998
 33
        3.50000
999
BLOCK1:ZONE1:BLOCK1:ZONE1_PARTITION_3_0_10001
  0
3DFACE
  8
BLOCK1_ZONE1
 62
 43
 10
        6.65449
 20
        8.94985
 30
        3.50000
 11
        6.65449
 21
        8.94985
 31
        0.00000
 12
        1.65449
 22
        8.94985
 32
        0.00000
 13
        1.65449
 23
        8.94985
 33
        3.50000
999
BLOCK1:ZONE1:BLOCK1:ZONE1_WALL_2_0_0
  0
3DFACE
  8
BLOCK1_ZONE1
 62
 43
 10
        6.65449
 20
        1.63998
 30
        3.50000
 11
        6.65449
 21
        1.63998
 31
        0.00000
 12
        6.65449
 22
        8.94985
 32
        0.00000
 13
        6.65449
 23
        8.94985
 33
        3.50000
999
BLOCK1:ZONE1:BLOCK1:ZONE1_WALL_2_0_0_0_0_0_WIN
  0
3DFACE
  8
BLOCK1_ZONE1
 62
143
 10
        6.65449
 20
        3.01384
 30
        2.26000
 11
        6.65449
 21
        3.01384
 31
        0.84000
 12
        6.65449
 22
        7.79350
 32
        0.84000
 13
        6.65449
 23
        7.79350
 33
        2.26000
999
BLOCK1:ZONE1:BLOCK1:ZONE1_WALL_4_0_0
  0
3DFACE
  8
BLOCK1_ZONE1
 62
 43
 10
        1.65449
 20
        8.94985
 30
        3.50000
 11
        1.65449
 21
        8.94985
 31
        0.00000
 12
        1.65449
 22
        1.63998
 32
        0.00000
 13
        1.65449
 23
        1.63998
 33
        3.50000
999
BLOCK1:ZONE1:BLOCK1:ZONE1_WALL_4_0_0_0_0_0_WIN
  0
3DFACE
  8
BLOCK1_ZONE1
 62
143
 10
        1.65449
 20
        7.79350
 30
        2.26000
 11
        1.65449
 21
        7.79350
 31
        0.84000
 12
        1.65449
 22
        3.01384
 32
        0.84000
 13
        1.65449
 23
        3.01384
 33
        2.26000
999
BLOCK1:ZONE1:BLOCK1:ZONE1_WALL_5_0_0
  0
3DFACE
  8
BLOCK1_ZONE1
 62
 43
 10
        1.65449
 20
        1.63998
 30
        3.50000
 11
        1.65449
 21
        1.63998
 31
        0.00000
 12
        6.65449
 22
        1.63998
 32
        0.00000
 13
        6.65449
 23
        1.63998
 33
        3.50000
999
BLOCK1:ZONE1:BLOCK1:ZONE1_WALL_5_0_0_0_0_0_WIN
  0
3DFACE
  8
BLOCK1_ZONE1
 62
143
 10
        2.64924
 20
        1.63998
 30
        2.26000
 11
        2.64924
 21
        1.63998
 31
        0.84000
 12
        5.65974
 22
        1.63998
 32
        0.84000
 13
        5.65974
 23
        1.63998
 33
        2.26000
999
BLOCK1:ZONE1:BLOCK1:ZONE1_GROUNDFLOOR_0_0_0
  0
3DFACE
  8
BLOCK1_ZONE1
 62
  8
 10
        6.65449
 20
        8.94985
 30
        0.00000
 11
        6.65449
 21
        1.63998
 31
        0.00000
 12
        1.65449
 22
        1.63998
 32
        0.00000
 13
        1.65449
 23
        8.94985
 33
        0.00000
999
BLOCK1:ZONE1:BLOCK1:ZONE1_CEILING_1_0_0
  0
3DFACE
  8
BLOCK1_ZONE1
 62
 15
 10
        1.65449
 20
        8.94985
 30
        3.50000
 11
        1.65449
 21
        4.34515
 31
        3.50000
 12
        6.65449
 22
        4.34515
 32
        3.50000
 13
        6.65449
 23
        8.94985
 33
        3.50000
999
BLOCK1:ZONE1:BLOCK1:ZONE1_CEILING_1_1_0
  0
3DFACE
  8
BLOCK1_ZONE1
 62
 15
 10
        1.65449
 20
        4.34515
 30
        3.50000
 11
        1.65449
 21
        1.63998
 31
        3.50000
 12
        6.65449
 22
        1.63998
 32
        3.50000
 13
        6.65449
 23
        4.34515
 33
        3.50000
999
BLOCK2:ZONE2:BLOCK2:ZONE2_WALL_2_0_0
  0
3DFACE
  8
BLOCK2_ZONE2
 62
 43
 10
        6.65449
 20
        4.34515
 30
        7.00000
 11
        6.65449
 21
        4.34515
 31
        3.50000
 12
        6.65449
 22
       11.63998
 32
        3.50000
 13
        6.65449
 23
       11.63998
 33
        7.00000
999
BLOCK2:ZONE2:BLOCK2:ZONE2_WALL_2_0_0_0_0_0_WIN
  0
3DFACE
  8
BLOCK2_ZONE2
 62
143
 10
        6.65449
 20
        5.56852
 30
        5.86000
 11
        6.65449
 21
        5.56852
 31
        4.44000
 12
        6.65449
 22
       10.19911
 32
        4.44000
 13
        6.65449
 23
       10.19911
 33
        5.86000
999
BLOCK2:ZONE2:BLOCK2:ZONE2_WALL_3_0_0
  0
3DFACE
  8
BLOCK2_ZONE2
 62
 43
 10
        6.65449
 20
       11.63998
 30
        7.00000
 11
        6.65449
 21
       11.63998
 31
        3.50000
 12
        1.65449
 22
       11.63998
 32
        3.50000
 13
        1.65449
 23
       11.63998
 33
        7.00000
999
BLOCK2:ZONE2:BLOCK2:ZONE2_WALL_3_0_0_0_0_0_WIN
  0
3DFACE
  8
BLOCK2_ZONE2
 62
143
 10
        5.61559
 20
       11.63998
 30
        5.86000
 11
        5.61559
 21
       11.63998
 31
        4.44000
 12
        2.69339
 22
       11.63998
 32
        4.44000
 13
        2.69339
 23
       11.63998
 33
        5.86000
999
BLOCK2:ZONE2:BLOCK2:ZONE2_WALL_4_0_0
  0
3DFACE
  8
BLOCK2_ZONE2
 62
 43
 10
        1.65449
 20
       11.63998
 30
        7.00000
 11
        1.65449
 21
       11.63998
 31
        3.50000
 12
        1.65449
 22
        4.34515
 32
        3.50000
 13
        1.65449
 23
        4.34515
 33
        7.00000
999
BLOCK2:ZONE2:BLOCK2:ZONE2_WALL_4_0_0_0_0_0_WIN
  0
3DFACE
  8
BLOCK2_ZONE2
 62
143
 10
        1.65449
 20
       10.19911
 30
        5.86000
 11
        1.65449
 21
       10.19911
 31
        4.44000
 12
        1.65449
 22
        5.56852
 32
        4.44000
 13
        1.65449
 23
        5.56852
 33
        5.86000
999
BLOCK2:ZONE2:BLOCK2:ZONE2_PARTITION_5_0_0
  0
3DFACE
  8
BLOCK2_ZONE2
 62
 43
 10
        1.65449
 20
        4.34515
 30
        7.00000
 11
        1.65449
 21
        4.34515
 31
        3.50000
 12
        6.65449
 22
        4.34515
 32
        3.50000
 13
        6.65449
 23
        4.34515
 33
        7.00000
999
BLOCK2:ZONE2:BLOCK2:ZONE2_FLOOR_0_0_10000
  0
3DFACE
  8
BLOCK2_ZONE2
 62
  8
 10
        6.65449
 20
       11.63998
 30
        3.50000
 11
        6.65449
 21
        8.94985
 31
        3.50000
 12
        1.65449
 22
        8.94985
 32
        3.50000
 13
        1.65449
 23
       11.63998
 33
        3.50000
999
BLOCK2:ZONE2:BLOCK2:ZONE2_FLOOR_0_0_10002
  0
3DFACE
  8
BLOCK2_ZONE2
 62
  8
 10
        6.65449
 20
        8.94985
 30
        3.50000
 11
        6.65449
 21
        4.34515
 31
        3.50000
 12
        1.65449
 22
        4.34515
 32
        3.50000
 13
        1.65449
 23
        8.94985
 33
        3.50000
999
BLOCK2:ZONE2:BLOCK2:ZONE2_ROOF_1_0_0
  0
3DFACE
  8
BLOCK2_ZONE2
 62
 15
 10
        1.65449
 20
       11.63998
 30
        7.00000
 11
        1.65449
 21
        4.34515
 31
        7.00000
 12
        6.65449
 22
        4.34515
 32
        7.00000
 13
        6.65449
 23
       11.63998
 33
        7.00000
999
BLOCK2:ZONE1:BLOCK2:ZONE1_PARTITION_3_0_10004
  0
3DFACE
  8
BLOCK2_ZONE1
 62
 43
 10
        6.65449
 20
        4.34515
 30
        7.00000
 11
        6.65449
 21
        4.34515
 31
        3.50000
 12
        1.65449
 22
        4.34515
 32
        3.50000
 13
        1.65449
 23
        4.34515
 33
        7.00000
999
BLOCK2:ZONE1:BLOCK2:ZONE1_WALL_2_0_0
  0
3DFACE
  8
BLOCK2_ZONE1
 62
 43
 10
        6.65449
 20
        1.63998
 30
        7.00000
 11
        6.65449
 21
        1.63998
 31
        3.50000
 12
        6.65449
 22
        4.34515
 32
        3.50000
 13
        6.65449
 23
        4.34515
 33
        7.00000
999
BLOCK2:ZONE1:BLOCK2:ZONE1_WALL_2_0_0_0_0_0_WIN
  0
3DFACE
  8
BLOCK2_ZONE1
 62
143
 10
        6.65449
 20
        2.34651
 30
        5.86000
 11
        6.65449
 21
        2.34651
 31
        4.44000
 12
        6.65449
 22
        3.85612
 32
        4.44000
 13
        6.65449
 23
        3.85612
 33
        5.86000
999
BLOCK2:ZONE1:BLOCK2:ZONE1_WALL_4_0_0
  0
3DFACE
  8
BLOCK2_ZONE1
 62
 43
 10
        1.65449
 20
        4.34515
 30
        7.00000
 11
        1.65449
 21
        4.34515
 31
        3.50000
 12
        1.65449
 22
        1.63998
 32
        3.50000
 13
        1.65449
 23
        1.63998
 33
        7.00000
999
BLOCK2:ZONE1:BLOCK2:ZONE1_WALL_4_0_0_0_0_0_WIN
  0
3DFACE
  8
BLOCK2_ZONE1
 62
143
 10
        1.65449
 20
        3.85612
 30
        5.86000
 11
        1.65449
 21
        3.85612
 31
        4.44000
 12
        1.65449
 22
        2.34651
 32
        4.44000
 13
        1.65449
 23
        2.34651
 33
        5.86000
999
BLOCK2:ZONE1:BLOCK2:ZONE1_WALL_5_0_0
  0
3DFACE
  8
BLOCK2_ZONE1
 62
 43
 10
        1.65449
 20
        1.63998
 30
        7.00000
 11
        1.65449
 21
        1.63998
 31
        3.50000
 12
        6.65449
 22
        1.63998
 32
        3.50000
 13
        6.65449
 23
        1.63998
 33
        7.00000
999
BLOCK2:ZONE1:BLOCK2:ZONE1_WALL_5_0_0_0_0_0_WIN
  0
3DFACE
  8
BLOCK2_ZONE1
 62
143
 10
        2.69339
 20
        1.63998
 30
        5.86000
 11
        2.69339
 21
        1.63998
 31
        4.44000
 12
        5.61559
 22
        1.63998
 32
        4.44000
 13
        5.61559
 23
        1.63998
 33
        5.86000
999
BLOCK2:ZONE1:BLOCK2:ZONE1_FLOOR_0_0_10003
  0
3DFACE
  8
BLOCK2_ZONE1
 62
  8
 10
        6.65449
 20
        4.34515
 30
        3.50000
 11
        6.65449
 21
        1.63998
 31
        3.50000
 12
        1.65449
 22
        1.63998
 32
        3.50000
 13
        1.65449
 23
        4.34515
 33
        3.50000
999
BLOCK2:ZONE1:BLOCK2:ZONE1_ROOF_1_0_0
  0
3DFACE
  8
BLOCK2_ZONE1
 62
 15
 10
        1.65449
 20
        4.34515
 30
        7.00000
 11
        1.65449
 21
        1.63998
 31
        7.00000
 12
        6.65449
 22
        1.63998
 32
        7.00000
 13
        6.65449
 23
        4.34515
 33
        7.00000
  0
ENDSEC
  0
EOF
