Program Version,EnergyPlus, Version 9.6.0-f420c06a69, YMD=2022.04.20 15:28,
   ** Warning ** Timestep: Requested number (2) is less than the suggested minimum of 4.
   **   ~~~   ** Please see entry for Timestep in Input/Output Reference for discussion of considerations.
   ************* Beginning Zone Sizing Calculations
   ** Warning ** Weather file location will be used rather than entered (IDF) Location object.
   **   ~~~   ** ..Location object=UNTITLED (O1-O1:31-12)  (01-01:31-12)
   **   ~~~   ** ..Weather File Location=Asahikawa JA - MN8 WMO#=0
   **   ~~~   ** ..due to location differences, Latitude difference=[3.32] degrees, Longitude difference=[145.93] degrees.
   **   ~~~   ** ..Time Zone difference=[8.0] hour(s), Elevation difference=[79.04] percent, [460.00] meters.
   ** Warning ** GetSurfaceData: Entered Zone Floor Areas differ from calculated Zone Floor Area(s).
   **   ~~~   ** ...use Output:Diagnostics,DisplayExtraWarnings; to show more details on individual zones.
   ** Warning ** CalcSurfaceCentroid: 26 Surfaces have the Z coordinate < 0.
   **   ~~~   ** ...in any calculations, Wind Speed will be 0.0 for these surfaces.
   **   ~~~   ** ...in any calculations, Outside temperatures will be the outside temperature + 9.750E-003 for these surfaces.
   **   ~~~   ** ...that is, these surfaces will have conditions as though at ground level.
   ************* Note that the following warning(s) may/will occur if you have not enclosed your zone completely.
   ** Warning ** Entered Zone Volumes differ from calculated zone volume(s).
   **   ~~~   ** ...use Output:Diagnostics,DisplayExtraWarnings; to show more details on individual zones.
   ** Warning ** CalculateZoneVolume: 1 zone is not fully enclosed. For more details use:  Output:Diagnostics,DisplayExtrawarnings; 
   ** Warning ** CheckUsedConstructions: There are 9 nominally unused constructions in input.
   **   ~~~   ** For explicit details on each unused construction, use Output:Diagnostics,DisplayExtraWarnings;
   ** Warning ** DeterminePolygonOverlap: Too many figures [>15000]  detected in an overlap calculation. Use Output:Diagnostics,DisplayExtraWarnings; for more details.
   ** Severe  ** UpdateZoneSizing: Cooling supply air temperature (calculated) within 2C of zone temperature
   **   ~~~   ** ...check zone thermostat set point and design supply air temperatures
   **   ~~~   ** ...zone name = BLOCK1:ZONE1
   **   ~~~   ** ...design sensible cooling load = 547.21 W
   **   ~~~   ** ...thermostat set point temp    = 0.000 C
   **   ~~~   ** ...zone temperature             = 19.200 C
   **   ~~~   ** ...supply air temperature       = 18.700 C
   **   ~~~   ** ...temperature difference       = -0.50000 C
   **   ~~~   ** ...calculated volume flow rate  = 0.90255 m3/s
   **   ~~~   ** ...calculated mass flow rate    = 1.07131 kg/s
   ** Severe  ** UpdateZoneSizing: Heating supply air temperature (calculated) within 2C of zone temperature
   **   ~~~   ** ...check zone thermostat set point and design supply air temperatures
   **   ~~~   ** ...zone name = BLOCK1:ZONE1
   **   ~~~   ** ...design heating load         = 776.12 W
   **   ~~~   ** ...thermostat set point temp   = 14.400 C
   **   ~~~   ** ...zone temperature            = 14.400 C
   **   ~~~   ** ...supply air temperature      = 14.900 C
   **   ~~~   ** ...temperature difference      = 0.50000 C
   **   ~~~   ** ...calculated volume flow rate = 1.29186 m3/s
   **   ~~~   ** ...calculated mass flow rate   = 1.53342 kg/s
   ** Severe  ** UpdateZoneSizing: Cooling supply air temperature (calculated) within 2C of zone temperature
   **   ~~~   ** ...check zone thermostat set point and design supply air temperatures
   **   ~~~   ** ...zone name = BLOCK1:ZONE3
   **   ~~~   ** ...design sensible cooling load = 385.74 W
   **   ~~~   ** ...thermostat set point temp    = 0.000 C
   **   ~~~   ** ...zone temperature             = 19.200 C
   **   ~~~   ** ...supply air temperature       = 18.700 C
   **   ~~~   ** ...temperature difference       = -0.50000 C
   **   ~~~   ** ...calculated volume flow rate  = 0.63623 m3/s
   **   ~~~   ** ...calculated mass flow rate    = 0.75520 kg/s
   ** Severe  ** UpdateZoneSizing: Heating supply air temperature (calculated) within 2C of zone temperature
   **   ~~~   ** ...check zone thermostat set point and design supply air temperatures
   **   ~~~   ** ...zone name = BLOCK1:ZONE3
   **   ~~~   ** ...design heating load         = 570.96 W
   **   ~~~   ** ...thermostat set point temp   = 14.400 C
   **   ~~~   ** ...zone temperature            = 14.400 C
   **   ~~~   ** ...supply air temperature      = 14.900 C
   **   ~~~   ** ...temperature difference      = 0.50000 C
   **   ~~~   ** ...calculated volume flow rate = 0.95037 m3/s
   **   ~~~   ** ...calculated mass flow rate   = 1.12807 kg/s
   ** Severe  ** UpdateZoneSizing: Cooling supply air temperature (calculated) within 2C of zone temperature
   **   ~~~   ** ...check zone thermostat set point and design supply air temperatures
   **   ~~~   ** ...zone name = BLOCK1:ZONE5
   **   ~~~   ** ...design sensible cooling load = 9599.76 W
   **   ~~~   ** ...thermostat set point temp    = 0.000 C
   **   ~~~   ** ...zone temperature             = 19.200 C
   **   ~~~   ** ...supply air temperature       = 18.700 C
   **   ~~~   ** ...temperature difference       = -0.50000 C
   **   ~~~   ** ...calculated volume flow rate  = 15.83342 m3/s
   **   ~~~   ** ...calculated mass flow rate    = 18.79412 kg/s
   ** Severe  ** UpdateZoneSizing: Heating supply air temperature (calculated) within 2C of zone temperature
   **   ~~~   ** ...check zone thermostat set point and design supply air temperatures
   **   ~~~   ** ...zone name = BLOCK1:ZONE5
   **   ~~~   ** ...design heating load         = 10215.64 W
   **   ~~~   ** ...thermostat set point temp   = 14.400 C
   **   ~~~   ** ...zone temperature            = 14.400 C
   **   ~~~   ** ...supply air temperature      = 14.900 C
   **   ~~~   ** ...temperature difference      = 0.50000 C
   **   ~~~   ** ...calculated volume flow rate = 17.00394 m3/s
   **   ~~~   ** ...calculated mass flow rate   = 20.18352 kg/s
   ** Severe  ** UpdateZoneSizing: Cooling supply air temperature (calculated) within 2C of zone temperature
   **   ~~~   ** ...check zone thermostat set point and design supply air temperatures
   **   ~~~   ** ...zone name = BLOCK1:ZONE2
   **   ~~~   ** ...design sensible cooling load = 620.66 W
   **   ~~~   ** ...thermostat set point temp    = 0.000 C
   **   ~~~   ** ...zone temperature             = 19.200 C
   **   ~~~   ** ...supply air temperature       = 18.700 C
   **   ~~~   ** ...temperature difference       = -0.50000 C
   **   ~~~   ** ...calculated volume flow rate  = 1.02369 m3/s
   **   ~~~   ** ...calculated mass flow rate    = 1.21511 kg/s
   ** Severe  ** UpdateZoneSizing: Heating supply air temperature (calculated) within 2C of zone temperature
   **   ~~~   ** ...check zone thermostat set point and design supply air temperatures
   **   ~~~   ** ...zone name = BLOCK1:ZONE2
   **   ~~~   ** ...design heating load         = 578.14 W
   **   ~~~   ** ...thermostat set point temp   = 14.400 C
   **   ~~~   ** ...zone temperature            = 14.400 C
   **   ~~~   ** ...supply air temperature      = 14.900 C
   **   ~~~   ** ...temperature difference      = 0.50000 C
   **   ~~~   ** ...calculated volume flow rate = 0.96231 m3/s
   **   ~~~   ** ...calculated mass flow rate   = 1.14225 kg/s
   ** Severe  ** UpdateZoneSizing: Cooling supply air temperature (calculated) within 2C of zone temperature
   **   ~~~   ** ...check zone thermostat set point and design supply air temperatures
   **   ~~~   ** ...zone name = BLOCK1:ZONE4
   **   ~~~   ** ...design sensible cooling load = 124.99 W
   **   ~~~   ** ...thermostat set point temp    = 0.000 C
   **   ~~~   ** ...zone temperature             = 19.200 C
   **   ~~~   ** ...supply air temperature       = 18.700 C
   **   ~~~   ** ...temperature difference       = -0.50000 C
   **   ~~~   ** ...calculated volume flow rate  = 0.20615 m3/s
   **   ~~~   ** ...calculated mass flow rate    = 0.24470 kg/s
   ** Severe  ** UpdateZoneSizing: Heating supply air temperature (calculated) within 2C of zone temperature
   **   ~~~   ** ...check zone thermostat set point and design supply air temperatures
   **   ~~~   ** ...zone name = BLOCK1:ZONE4
   **   ~~~   ** ...design heating load         = 163.34 W
   **   ~~~   ** ...thermostat set point temp   = 14.400 C
   **   ~~~   ** ...zone temperature            = 14.400 C
   **   ~~~   ** ...supply air temperature      = 14.900 C
   **   ~~~   ** ...temperature difference      = 0.50000 C
   **   ~~~   ** ...calculated volume flow rate = 0.27187 m3/s
   **   ~~~   ** ...calculated mass flow rate   = 0.32271 kg/s
   ** Warning ** GetVRFInput: AirConditioner:VariableRefrigerantFlow="VRF OUTDOOR UNIT_BLOCK1:ZONE1" curve values
   **   ~~~   ** ... Cooling Capacity Ratio Modifier Function of Low Temperature Curve Name = VRFCOOLCAPFT output is not equal to 1.0 (+ or - 10%) at rated conditions.
   **   ~~~   ** ... Curve output at rated conditions = 1.136
   ** Warning ** AirConditioner:VariableRefrigerantFlow = "VRF OUTDOOR UNIT_BLOCK1:ZONE1", Minimum Condenser Inlet Node Temperature in Heat Recovery Mode is less than the minimum temperature in heat pump mode.
   **   ~~~   ** ...Minimum Condenser Inlet Node Temperature in Heat Recovery Mode = -9.99 C
   **   ~~~   ** ...Minimum Outdoor Temperature in Cooling Mode = -5.99 C
   **   ~~~   ** ...Minimum Outdoor Temperature in Heating Mode = -19.99 C
   **   ~~~   ** ...Minimum Outdoor Temperature in Heat Recovery Mode reset to greater of cooling or heating minimum temperature and simulation continues.
   **   ~~~   ** ... adjusted Minimum Condenser Inlet Node Temperature in Heat Recovery Mode = -5.99 C
   ** Warning ** GetVRFInput: AirConditioner:VariableRefrigerantFlow="VRF OUTDOOR UNIT_BLOCK1:ZONE3" curve values
   **   ~~~   ** ... Cooling Capacity Ratio Modifier Function of Low Temperature Curve Name = VRFCOOLCAPFT output is not equal to 1.0 (+ or - 10%) at rated conditions.
   **   ~~~   ** ... Curve output at rated conditions = 1.136
   ** Warning ** AirConditioner:VariableRefrigerantFlow = "VRF OUTDOOR UNIT_BLOCK1:ZONE3", Minimum Condenser Inlet Node Temperature in Heat Recovery Mode is less than the minimum temperature in heat pump mode.
   **   ~~~   ** ...Minimum Condenser Inlet Node Temperature in Heat Recovery Mode = -9.99 C
   **   ~~~   ** ...Minimum Outdoor Temperature in Cooling Mode = -5.99 C
   **   ~~~   ** ...Minimum Outdoor Temperature in Heating Mode = -19.99 C
   **   ~~~   ** ...Minimum Outdoor Temperature in Heat Recovery Mode reset to greater of cooling or heating minimum temperature and simulation continues.
   **   ~~~   ** ... adjusted Minimum Condenser Inlet Node Temperature in Heat Recovery Mode = -5.99 C
   ** Warning ** GetVRFInput: AirConditioner:VariableRefrigerantFlow="VRF OUTDOOR UNIT_BLOCK1:ZONE5" curve values
   **   ~~~   ** ... Cooling Capacity Ratio Modifier Function of Low Temperature Curve Name = VRFCOOLCAPFT output is not equal to 1.0 (+ or - 10%) at rated conditions.
   **   ~~~   ** ... Curve output at rated conditions = 1.136
   ** Warning ** AirConditioner:VariableRefrigerantFlow = "VRF OUTDOOR UNIT_BLOCK1:ZONE5", Minimum Condenser Inlet Node Temperature in Heat Recovery Mode is less than the minimum temperature in heat pump mode.
   **   ~~~   ** ...Minimum Condenser Inlet Node Temperature in Heat Recovery Mode = -9.99 C
   **   ~~~   ** ...Minimum Outdoor Temperature in Cooling Mode = -5.99 C
   **   ~~~   ** ...Minimum Outdoor Temperature in Heating Mode = -19.99 C
   **   ~~~   ** ...Minimum Outdoor Temperature in Heat Recovery Mode reset to greater of cooling or heating minimum temperature and simulation continues.
   **   ~~~   ** ... adjusted Minimum Condenser Inlet Node Temperature in Heat Recovery Mode = -5.99 C
   ** Warning ** GetVRFInput: AirConditioner:VariableRefrigerantFlow="VRF OUTDOOR UNIT_BLOCK1:ZONE2" curve values
   **   ~~~   ** ... Cooling Capacity Ratio Modifier Function of Low Temperature Curve Name = VRFCOOLCAPFT output is not equal to 1.0 (+ or - 10%) at rated conditions.
   **   ~~~   ** ... Curve output at rated conditions = 1.136
   ** Warning ** AirConditioner:VariableRefrigerantFlow = "VRF OUTDOOR UNIT_BLOCK1:ZONE2", Minimum Condenser Inlet Node Temperature in Heat Recovery Mode is less than the minimum temperature in heat pump mode.
   **   ~~~   ** ...Minimum Condenser Inlet Node Temperature in Heat Recovery Mode = -9.99 C
   **   ~~~   ** ...Minimum Outdoor Temperature in Cooling Mode = -5.99 C
   **   ~~~   ** ...Minimum Outdoor Temperature in Heating Mode = -19.99 C
   **   ~~~   ** ...Minimum Outdoor Temperature in Heat Recovery Mode reset to greater of cooling or heating minimum temperature and simulation continues.
   **   ~~~   ** ... adjusted Minimum Condenser Inlet Node Temperature in Heat Recovery Mode = -5.99 C
   ** Warning ** GetVRFInput: AirConditioner:VariableRefrigerantFlow="VRF OUTDOOR UNIT_BLOCK1:ZONE4" curve values
   **   ~~~   ** ... Cooling Capacity Ratio Modifier Function of Low Temperature Curve Name = VRFCOOLCAPFT output is not equal to 1.0 (+ or - 10%) at rated conditions.
   **   ~~~   ** ... Curve output at rated conditions = 1.136
   ** Warning ** AirConditioner:VariableRefrigerantFlow = "VRF OUTDOOR UNIT_BLOCK1:ZONE4", Minimum Condenser Inlet Node Temperature in Heat Recovery Mode is less than the minimum temperature in heat pump mode.
   **   ~~~   ** ...Minimum Condenser Inlet Node Temperature in Heat Recovery Mode = -9.99 C
   **   ~~~   ** ...Minimum Outdoor Temperature in Cooling Mode = -5.99 C
   **   ~~~   ** ...Minimum Outdoor Temperature in Heating Mode = -19.99 C
   **   ~~~   ** ...Minimum Outdoor Temperature in Heat Recovery Mode reset to greater of cooling or heating minimum temperature and simulation continues.
   **   ~~~   ** ... adjusted Minimum Condenser Inlet Node Temperature in Heat Recovery Mode = -5.99 C
   ** Warning ** GetDXCoils: Coil:Cooling:DX:VariableRefrigerantFlow="BLOCK1:ZONE1 VRF INDOOR UNIT DX COOLING COIL" curve values
   **   ~~~   ** ... Cooling Capacity Ratio Modifier Function of Temperature Curve Name = VRFTUCOOLCAPFT output is not equal to 1.0 (+ or - 10%) at rated conditions.
   **   ~~~   ** ... Curve output at rated conditions = 1.136
   ** Warning ** GetDXCoils: Coil:Cooling:DX:VariableRefrigerantFlow="BLOCK1:ZONE3 VRF INDOOR UNIT DX COOLING COIL" curve values
   **   ~~~   ** ... Cooling Capacity Ratio Modifier Function of Temperature Curve Name = VRFTUCOOLCAPFT output is not equal to 1.0 (+ or - 10%) at rated conditions.
   **   ~~~   ** ... Curve output at rated conditions = 1.136
   ** Warning ** GetDXCoils: Coil:Cooling:DX:VariableRefrigerantFlow="BLOCK1:ZONE5 VRF INDOOR UNIT DX COOLING COIL" curve values
   **   ~~~   ** ... Cooling Capacity Ratio Modifier Function of Temperature Curve Name = VRFTUCOOLCAPFT output is not equal to 1.0 (+ or - 10%) at rated conditions.
   **   ~~~   ** ... Curve output at rated conditions = 1.136
   ** Warning ** GetDXCoils: Coil:Cooling:DX:VariableRefrigerantFlow="BLOCK1:ZONE2 VRF INDOOR UNIT DX COOLING COIL" curve values
   **   ~~~   ** ... Cooling Capacity Ratio Modifier Function of Temperature Curve Name = VRFTUCOOLCAPFT output is not equal to 1.0 (+ or - 10%) at rated conditions.
   **   ~~~   ** ... Curve output at rated conditions = 1.136
   ** Warning ** GetDXCoils: Coil:Cooling:DX:VariableRefrigerantFlow="BLOCK1:ZONE4 VRF INDOOR UNIT DX COOLING COIL" curve values
   **   ~~~   ** ... Cooling Capacity Ratio Modifier Function of Temperature Curve Name = VRFTUCOOLCAPFT output is not equal to 1.0 (+ or - 10%) at rated conditions.
   **   ~~~   ** ... Curve output at rated conditions = 1.136
   ** Warning ** ZoneTerminalUnitList "VRF OUTDOOR UNIT_BLOCK1:ZONE1 ZONE LIST"
   ** Warning ** ...Only 1 Terminal Unit connected to system and heat recovery is selected.
   **   ~~~   ** ...Heat recovery will be disabled.
   ** Warning ** ManageSizing: For a plant sizing run, there must be at least 1 Sizing:Plant object input. SimulationControl Plant Sizing option ignored.
   ** Warning ** AirConditioner:VariableRefrigerantFlow "VRF OUTDOOR UNIT_BLOCK1:ZONE1".
   **   ~~~   ** ...InitVRF: VRF Heat Pump Min/Max Operating Temperature in Cooling Mode Limits have been exceeded and VRF system is disabled.
   **   ~~~   ** ... Outdoor Unit Inlet Air Temperature                 = -7.149
   **   ~~~   ** ... Cooling Minimum Outdoor Unit Inlet Temperature = -5.999
   **   ~~~   ** ... Cooling Maximum Outdoor Unit Inlet Temperature = 43.000
   **   ~~~   ** ... Check VRF Heat Pump Min/Max Outdoor Temperature in Cooling Mode limits.
   **   ~~~   **  During Warmup, Environment=UNTITLED (O1-O1:31-12), at Simulation time=01/01 00:00 - 00:30
   ** Warning ** AirConditioner:VariableRefrigerantFlow "VRF OUTDOOR UNIT_BLOCK1:ZONE3".
   **   ~~~   ** ...InitVRF: VRF Heat Pump Min/Max Operating Temperature in Cooling Mode Limits have been exceeded and VRF system is disabled.
   **   ~~~   ** ... Outdoor Unit Inlet Air Temperature                 = -7.149
   **   ~~~   ** ... Cooling Minimum Outdoor Unit Inlet Temperature = -5.999
   **   ~~~   ** ... Cooling Maximum Outdoor Unit Inlet Temperature = 43.000
   **   ~~~   ** ... Check VRF Heat Pump Min/Max Outdoor Temperature in Cooling Mode limits.
   **   ~~~   **  During Warmup, Environment=UNTITLED (O1-O1:31-12), at Simulation time=01/01 00:00 - 00:30
   ** Warning ** AirConditioner:VariableRefrigerantFlow "VRF OUTDOOR UNIT_BLOCK1:ZONE2".
   **   ~~~   ** ...InitVRF: VRF Heat Pump Min/Max Operating Temperature in Cooling Mode Limits have been exceeded and VRF system is disabled.
   **   ~~~   ** ... Outdoor Unit Inlet Air Temperature                 = -7.149
   **   ~~~   ** ... Cooling Minimum Outdoor Unit Inlet Temperature = -5.999
   **   ~~~   ** ... Cooling Maximum Outdoor Unit Inlet Temperature = 43.000
   **   ~~~   ** ... Check VRF Heat Pump Min/Max Outdoor Temperature in Cooling Mode limits.
   **   ~~~   **  During Warmup, Environment=UNTITLED (O1-O1:31-12), at Simulation time=01/01 00:00 - 00:30
   ** Warning ** AirConditioner:VariableRefrigerantFlow "VRF OUTDOOR UNIT_BLOCK1:ZONE4".
   **   ~~~   ** ...InitVRF: VRF Heat Pump Min/Max Operating Temperature in Cooling Mode Limits have been exceeded and VRF system is disabled.
   **   ~~~   ** ... Outdoor Unit Inlet Air Temperature                 = -7.149
   **   ~~~   ** ... Cooling Minimum Outdoor Unit Inlet Temperature = -5.999
   **   ~~~   ** ... Cooling Maximum Outdoor Unit Inlet Temperature = 43.000
   **   ~~~   ** ... Check VRF Heat Pump Min/Max Outdoor Temperature in Cooling Mode limits.
   **   ~~~   **  During Warmup, Environment=UNTITLED (O1-O1:31-12), at Simulation time=01/01 00:00 - 00:30
   ************* Testing Individual Branch Integrity
   ************* All Branches passed integrity testing
   ************* Testing Individual Supply Air Path Integrity
   ************* All Supply Air Paths passed integrity testing
   ************* Testing Individual Return Air Path Integrity
   ************* All Return Air Paths passed integrity testing
   ************* No node connection errors were found.
   ** Severe  ** Invalid Actuated Component Unique Name =BLOCK1:ZONE1_PARTITION_5_0_0_0_0_0_WIN
   **   ~~~   ** Entered in EnergyManagementSystem:Actuator=BLOCK1_ZONE1_PARTITION_5_0_0_0_0_0_WIN_VENTOPENFACT
   **   ~~~   ** Component Unique key name not found 
   **   ~~~   ** Use Output:EnergyManagementSystem object to create .edd file for valid component names.
   ** Severe  ** Invalid Actuated Component Control Type =VENTING OPENING FACTOR
   **   ~~~   ** Entered in EnergyManagementSystem:Actuator=BLOCK1_ZONE1_PARTITION_5_0_0_0_0_0_WIN_VENTOPENFACT
   **   ~~~   ** Control Type not found
   **   ~~~   ** Use Output:EnergyManagementSystem object to create .edd file for valid component control types.
   ** Severe  ** Invalid Actuated Component Unique Name =BLOCK1:ZONE1_PARTITION_6_0_0_0_0_0_WIN
   **   ~~~   ** Entered in EnergyManagementSystem:Actuator=BLOCK1_ZONE1_PARTITION_6_0_0_0_0_0_WIN_VENTOPENFACT
   **   ~~~   ** Component Unique key name not found 
   **   ~~~   ** Use Output:EnergyManagementSystem object to create .edd file for valid component names.
   ** Severe  ** Invalid Actuated Component Control Type =VENTING OPENING FACTOR
   **   ~~~   ** Entered in EnergyManagementSystem:Actuator=BLOCK1_ZONE1_PARTITION_6_0_0_0_0_0_WIN_VENTOPENFACT
   **   ~~~   ** Control Type not found
   **   ~~~   ** Use Output:EnergyManagementSystem object to create .edd file for valid component control types.
   **  Fatal  ** Errors found in processing Energy Management System input. Preceding condition causes termination.
   ...Summary of Errors that led to program termination:
   ..... Reference severe error count=14
   ..... Last severe error=Invalid Actuated Component Control Type =VENTING OPENING FACTOR
   ************* Warning:  Node connection errors not checked - most system input has not been read (see previous warning).
   ************* Fatal error -- final processing.  Program exited before simulations began.  See previous error messages.
   *************
   ************* ===== Recurring Error Summary =====
   ************* The following recurring error messages occurred.
   *************
   *************  ** Warning ** AirConditioner:VariableRefrigerantFlow "VRF OUTDOOR UNIT_BLOCK1:ZONE1" -- Exceeded VRF Heat Pump min/max cooling temperature limit error continues...
   *************  **   ~~~   **   This error occurred 7 total times;
   *************  **   ~~~   **   during Warmup 7 times;
   *************  **   ~~~   **   during Sizing 0 times.
   *************  **   ~~~   **   Max=-6.8  Min=-7.15
   *************
   *************  ** Warning ** AirConditioner:VariableRefrigerantFlow "VRF OUTDOOR UNIT_BLOCK1:ZONE3" -- Exceeded VRF Heat Pump min/max cooling temperature limit error continues...
   *************  **   ~~~   **   This error occurred 7 total times;
   *************  **   ~~~   **   during Warmup 7 times;
   *************  **   ~~~   **   during Sizing 0 times.
   *************  **   ~~~   **   Max=-6.8  Min=-7.15
   *************
   *************  ** Warning ** AirConditioner:VariableRefrigerantFlow "VRF OUTDOOR UNIT_BLOCK1:ZONE2" -- Exceeded VRF Heat Pump min/max cooling temperature limit error continues...
   *************  **   ~~~   **   This error occurred 7 total times;
   *************  **   ~~~   **   during Warmup 7 times;
   *************  **   ~~~   **   during Sizing 0 times.
   *************  **   ~~~   **   Max=-6.8  Min=-7.15
   *************
   *************  ** Warning ** AirConditioner:VariableRefrigerantFlow "VRF OUTDOOR UNIT_BLOCK1:ZONE4" -- Exceeded VRF Heat Pump min/max cooling temperature limit error continues...
   *************  **   ~~~   **   This error occurred 7 total times;
   *************  **   ~~~   **   during Warmup 7 times;
   *************  **   ~~~   **   during Sizing 0 times.
   *************  **   ~~~   **   Max=-6.8  Min=-7.15
   *************
   *************
   ************* ===== Final Error Summary =====
   ************* The following error categories occurred.  Consider correcting or noting.
   ************* Nominally Unused Constructions
   ************* ..The nominally unused constructions warning is provided to alert you to potential conditions that can cause
   ************* ..extra time during simulation. Each construction is calculated by the algorithm indicated in the HeatBalanceAlgorithm
   ************* ..object. You may remove the constructions indicated (when you use the DisplayExtraWarnings option).
   *************
   ************* EnergyPlus Warmup Error Summary. During Warmup: 0 Warning; 0 Severe Errors.
   ************* EnergyPlus Sizing Error Summary. During Sizing: 25 Warning; 10 Severe Errors.
   ************* EnergyPlus Terminated--Fatal Error Detected. 54 Warning; 14 Severe Errors; Elapsed Time=00hr 00min  2.08sec
