  0
SECTION
  2
ENTITIES
999
DXF created from EnergyPlus
999
Program Version,EnergyPlus, Version 9.4.0-998c4b761e, YMD=2023.11.21 11:55
999
Polygon Action,TRIANGULATE3DFACE
999
Color Scheme,Default
999
Text - True North
  0
TEXT
  8
1
  6
Continuous
 62
  3
 10
      -21.48500
 20
       -3.89245
 30
        0.10000
 40
 .25
  1
True North
 41
 0.0
  7
MONOTXT
210
0.0
220
0.0
230
1.0
999
Text - Building Title
  0
TEXT
  8
1
  6
Continuous
 62
  3
 10
      -24.48500
 20
       -7.89245
 30
        0.10000
 40
 .4
  1
Building - Building
 41
 0.0
  7
MONOTXT
210
0.0
220
0.0
230
1.0
999
North Arrow Stem
  0
3DFACE
  8
1
 62
  3
 10
      -20.48500
 20
       -3.89245
 30
        0.10000
 11
      -20.48500
 21
       -3.89245
 31
        0.00000
 12
      -20.48500
 22
       -6.89245
 32
        0.00000
 13
      -20.48500
 23
       -6.89245
 33
        0.10000
999
North Arrow Head 1
  0
3DFACE
  8
1
 62
  3
 10
      -20.48500
 20
       -3.89245
 30
        0.10000
 11
      -20.48500
 21
       -3.89245
 31
        0.00000
 12
      -20.98500
 22
       -4.75848
 32
        0.00000
 13
      -20.98500
 23
       -4.75848
 33
        0.10000
999
North Arrow Head 2
  0
3DFACE
  8
1
 62
  3
 10
      -20.48500
 20
       -3.89245
 30
        0.10000
 11
      -20.48500
 21
       -3.89245
 31
        0.00000
 12
      -19.98500
 22
       -4.75848
 32
        0.00000
 13
      -19.98500
 23
       -4.75848
 33
        0.10000
999
North Arrow Side 1
  0
3DFACE
  8
1
 62
  3
 10
      -20.98500
 20
       -2.39245
 30
        0.10000
 11
      -20.98500
 21
       -2.39245
 31
        0.00000
 12
      -20.98500
 22
       -3.39245
 32
        0.00000
 13
      -20.98500
 23
       -3.39245
 33
        0.10000
999
North Arrow Side 2
  0
3DFACE
  8
1
 62
  3
 10
      -20.98500
 20
       -2.39245
 30
        0.10000
 11
      -20.98500
 21
       -2.39245
 31
        0.00000
 12
      -19.98500
 22
       -3.39245
 32
        0.00000
 13
      -19.98500
 23
       -3.39245
 33
        0.10000
999
North Arrow Side 3
  0
3DFACE
  8
1
 62
  3
 10
      -19.98500
 20
       -2.39245
 30
        0.10000
 11
      -19.98500
 21
       -2.39245
 31
        0.00000
 12
      -19.98500
 22
       -3.39245
 32
        0.00000
 13
      -19.98500
 23
       -3.39245
 33
        0.10000
999
Zone Names
999
Zone=1:BLOCK1_ZONE2
999
Zone=2:BLOCK1_ZONE1
999
BLOCK1:ZONE2:BLOCK1:ZONE2_WALL_2_0_0
  0
3DFACE
  8
BLOCK1_ZONE2
 62
 43
 10
       -0.48500
 20
        3.10755
 30
        3.50000
 11
       -0.48500
 21
        3.10755
 31
        0.00000
 12
       -0.48500
 22
       13.10755
 32
        0.00000
 13
       -0.48500
 23
       13.10755
 33
        3.50000
999
BLOCK1:ZONE2:BLOCK1:ZONE2_WALL_2_0_0_0_0_0_WIN
  0
3DFACE
  8
BLOCK1_ZONE2
 62
143
 10
       -0.48500
 20
        4.66742
 30
        2.26000
 11
       -0.48500
 21
        4.66742
 31
        0.84000
 12
       -0.48500
 22
       11.33017
 32
        0.84000
 13
       -0.48500
 23
       11.33017
 33
        2.26000
999
BLOCK1:ZONE2:BLOCK1:ZONE2_WALL_3_0_0
  0
3DFACE
  8
BLOCK1_ZONE2
 62
 43
 10
       -0.48500
 20
       13.10755
 30
        3.50000
 11
       -0.48500
 21
       13.10755
 31
        0.00000
 12
      -10.48500
 22
       13.10755
 32
        0.00000
 13
      -10.48500
 23
       13.10755
 33
        3.50000
999
BLOCK1:ZONE2:BLOCK1:ZONE2_WALL_3_0_0_0_0_0_WIN
  0
3DFACE
  8
BLOCK1_ZONE2
 62
143
 10
       -2.22975
 20
       13.10755
 30
        2.26000
 11
       -2.22975
 21
       13.10755
 31
        0.84000
 12
       -8.74025
 22
       13.10755
 32
        0.84000
 13
       -8.74025
 23
       13.10755
 33
        2.26000
999
BLOCK1:ZONE2:BLOCK1:ZONE2_WALL_4_0_0
  0
3DFACE
  8
BLOCK1_ZONE2
 62
 43
 10
      -10.48500
 20
       13.10755
 30
        3.50000
 11
      -10.48500
 21
       13.10755
 31
        0.00000
 12
      -10.48500
 22
        3.10755
 32
        0.00000
 13
      -10.48500
 23
        3.10755
 33
        3.50000
999
BLOCK1:ZONE2:BLOCK1:ZONE2_WALL_4_0_0_0_0_0_WIN
  0
3DFACE
  8
BLOCK1_ZONE2
 62
143
 10
      -10.48500
 20
       11.33017
 30
        2.26000
 11
      -10.48500
 21
       11.33017
 31
        0.84000
 12
      -10.48500
 22
        4.66742
 32
        0.84000
 13
      -10.48500
 23
        4.66742
 33
        2.26000
999
BLOCK1:ZONE2:BLOCK1:ZONE2_PARTITION_5_0_0
  0
3DFACE
  8
BLOCK1_ZONE2
 62
 43
 10
      -10.48500
 20
        3.10755
 30
        3.50000
 11
      -10.48500
 21
        3.10755
 31
        0.00000
 12
       -0.48500
 22
        3.10755
 32
        0.00000
 13
       -0.48500
 23
        3.10755
 33
        3.50000
999
BLOCK1:ZONE2:BLOCK1:ZONE2_GROUNDFLOOR_0_0_0
  0
3DFACE
  8
BLOCK1_ZONE2
 62
  8
 10
       -0.48500
 20
       13.10755
 30
        0.00000
 11
       -0.48500
 21
        3.10755
 31
        0.00000
 12
      -10.48500
 22
        3.10755
 32
        0.00000
 13
      -10.48500
 23
       13.10755
 33
        0.00000
999
BLOCK1:ZONE2:BLOCK1:ZONE2_ROOF_1_0_0
  0
3DFACE
  8
BLOCK1_ZONE2
 62
 15
 10
      -10.48500
 20
       13.10755
 30
        3.50000
 11
      -10.48500
 21
        3.10755
 31
        3.50000
 12
       -0.48500
 22
        3.10755
 32
        3.50000
 13
       -0.48500
 23
       13.10755
 33
        3.50000
999
BLOCK1:ZONE1:BLOCK1:ZONE1_PARTITION_3_0_10000
  0
3DFACE
  8
BLOCK1_ZONE1
 62
 43
 10
       -0.48500
 20
        3.10755
 30
        3.50000
 11
       -0.48500
 21
        3.10755
 31
        0.00000
 12
      -10.48500
 22
        3.10755
 32
        0.00000
 13
      -10.48500
 23
        3.10755
 33
        3.50000
999
BLOCK1:ZONE1:BLOCK1:ZONE1_WALL_2_0_0
  0
3DFACE
  8
BLOCK1_ZONE1
 62
 43
 10
       -0.48500
 20
       -6.89245
 30
        3.50000
 11
       -0.48500
 21
       -6.89245
 31
        0.00000
 12
       -0.48500
 22
        3.10755
 32
        0.00000
 13
       -0.48500
 23
        3.10755
 33
        3.50000
999
BLOCK1:ZONE1:BLOCK1:ZONE1_WALL_2_0_0_0_0_0_WIN
  0
3DFACE
  8
BLOCK1_ZONE1
 62
143
 10
       -0.48500
 20
       -5.11508
 30
        2.26000
 11
       -0.48500
 21
       -5.11508
 31
        0.84000
 12
       -0.48500
 22
        1.54767
 32
        0.84000
 13
       -0.48500
 23
        1.54767
 33
        2.26000
999
BLOCK1:ZONE1:BLOCK1:ZONE1_WALL_4_0_0
  0
3DFACE
  8
BLOCK1_ZONE1
 62
 43
 10
      -10.48500
 20
        3.10755
 30
        3.50000
 11
      -10.48500
 21
        3.10755
 31
        0.00000
 12
      -10.48500
 22
       -6.89245
 32
        0.00000
 13
      -10.48500
 23
       -6.89245
 33
        3.50000
999
BLOCK1:ZONE1:BLOCK1:ZONE1_WALL_4_0_0_0_0_0_WIN
  0
3DFACE
  8
BLOCK1_ZONE1
 62
143
 10
      -10.48500
 20
        1.54767
 30
        2.26000
 11
      -10.48500
 21
        1.54767
 31
        0.84000
 12
      -10.48500
 22
       -5.11508
 32
        0.84000
 13
      -10.48500
 23
       -5.11508
 33
        2.26000
999
BLOCK1:ZONE1:BLOCK1:ZONE1_WALL_5_0_0
  0
3DFACE
  8
BLOCK1_ZONE1
 62
 43
 10
      -10.48500
 20
       -6.89245
 30
        3.50000
 11
      -10.48500
 21
       -6.89245
 31
        0.00000
 12
       -0.48500
 22
       -6.89245
 32
        0.00000
 13
       -0.48500
 23
       -6.89245
 33
        3.50000
999
BLOCK1:ZONE1:BLOCK1:ZONE1_WALL_5_0_0_0_0_0_WIN
  0
3DFACE
  8
BLOCK1_ZONE1
 62
143
 10
       -8.74025
 20
       -6.89245
 30
        2.26000
 11
       -8.74025
 21
       -6.89245
 31
        0.84000
 12
       -2.22975
 22
       -6.89245
 32
        0.84000
 13
       -2.22975
 23
       -6.89245
 33
        2.26000
999
BLOCK1:ZONE1:BLOCK1:ZONE1_GROUNDFLOOR_0_0_0
  0
3DFACE
  8
BLOCK1_ZONE1
 62
  8
 10
       -0.48500
 20
        3.10755
 30
        0.00000
 11
       -0.48500
 21
       -6.89245
 31
        0.00000
 12
      -10.48500
 22
       -6.89245
 32
        0.00000
 13
      -10.48500
 23
        3.10755
 33
        0.00000
999
BLOCK1:ZONE1:BLOCK1:ZONE1_ROOF_1_0_0
  0
3DFACE
  8
BLOCK1_ZONE1
 62
 15
 10
      -10.48500
 20
        3.10755
 30
        3.50000
 11
      -10.48500
 21
       -6.89245
 31
        3.50000
 12
       -0.48500
 22
       -6.89245
 32
        3.50000
 13
       -0.48500
 23
        3.10755
 33
        3.50000
  0
ENDSEC
  0
EOF
