Program Version,EnergyPlus, Version 9.6.0-f420c06a69, YMD=2022.04.20 12:47,
   ** Warning ** Timestep: Requested number (2) is less than the suggested minimum of 4.
   **   ~~~   ** Please see entry for Timestep in Input/Output Reference for discussion of considerations.
   ************* Beginning Zone Sizing Calculations
   ** Warning ** Weather file location will be used rather than entered (IDF) Location object.
   **   ~~~   ** ..Location object=UNTITLED (O1-O1:31-12)  (01-01:31-12)
   **   ~~~   ** ..Weather File Location=Asahikawa JA - MN8 WMO#=0
   **   ~~~   ** ..due to location differences, Latitude difference=[3.32] degrees, Longitude difference=[145.93] degrees.
   **   ~~~   ** ..Time Zone difference=[8.0] hour(s), Elevation difference=[79.04] percent, [460.00] meters.
   ** Warning ** GetSurfaceData: Construction PROJECT PARTITION of interzone surface BLOCK1:ZONE2_PARTITION_2_0_0 does not have the same materials in the reverse order as the construction PROJECT PARTITION_REV of adjacent surface BLOCK1:ZONE1_PARTITION_4_0_10000
   **   ~~~   ** or the properties of the reversed layers are not correct due to differing layer front and back side values
   **   ~~~   ** ...but Nominal U values are similar, diff=[0.0000] ... simulation proceeds.
   **   ~~~   ** ...if the two zones are expected to have significantly different temperatures, the proper "reverse" construction should be created.
   **   ~~~   ** ...this problem for this pair will not be reported again.
   ** Warning ** GetSurfaceData: Entered Zone Floor Areas differ from calculated Zone Floor Area(s).
   **   ~~~   ** ...use Output:Diagnostics,DisplayExtraWarnings; to show more details on individual zones.
   ************* Note that the following warning(s) may/will occur if you have not enclosed your zone completely.
   ** Warning ** Entered Zone Volumes differ from calculated zone volume(s).
   **   ~~~   ** ...use Output:Diagnostics,DisplayExtraWarnings; to show more details on individual zones.
   ** Warning ** CheckUsedConstructions: There are 5 nominally unused constructions in input.
   **   ~~~   ** For explicit details on each unused construction, use Output:Diagnostics,DisplayExtraWarnings;
   ** Severe  ** UpdateZoneSizing: Cooling supply air temperature (calculated) within 2C of zone temperature
   **   ~~~   ** ...check zone thermostat set point and design supply air temperatures
   **   ~~~   ** ...zone name = BLOCK1:ZONE2
   **   ~~~   ** ...design sensible cooling load = 2963.60 W
   **   ~~~   ** ...thermostat set point temp    = 0.000 C
   **   ~~~   ** ...zone temperature             = 20.324 C
   **   ~~~   ** ...supply air temperature       = 19.824 C
   **   ~~~   ** ...temperature difference       = -0.50000 C
   **   ~~~   ** ...calculated volume flow rate  = 4.88803 m3/s
   **   ~~~   ** ...calculated mass flow rate    = 5.80205 kg/s
   ** Severe  ** UpdateZoneSizing: Heating supply air temperature (calculated) within 2C of zone temperature
   **   ~~~   ** ...check zone thermostat set point and design supply air temperatures
   **   ~~~   ** ...zone name = BLOCK1:ZONE2
   **   ~~~   ** ...design heating load         = 721.01 W
   **   ~~~   ** ...thermostat set point temp   = 21.967 C
   **   ~~~   ** ...zone temperature            = 23.921 C
   **   ~~~   ** ...supply air temperature      = 24.421 C
   **   ~~~   ** ...temperature difference      = 0.50000 C
   **   ~~~   ** ...calculated volume flow rate = 1.20012 m3/s
   **   ~~~   ** ...calculated mass flow rate   = 1.42453 kg/s
   ** Severe  ** UpdateZoneSizing: Cooling supply air temperature (calculated) within 2C of zone temperature
   **   ~~~   ** ...check zone thermostat set point and design supply air temperatures
   **   ~~~   ** ...zone name = BLOCK1:ZONE1
   **   ~~~   ** ...design sensible cooling load = 2127.00 W
   **   ~~~   ** ...thermostat set point temp    = 0.000 C
   **   ~~~   ** ...zone temperature             = 24.371 C
   **   ~~~   ** ...supply air temperature       = 23.871 C
   **   ~~~   ** ...temperature difference       = -0.50000 C
   **   ~~~   ** ...calculated volume flow rate  = 3.50817 m3/s
   **   ~~~   ** ...calculated mass flow rate    = 4.16417 kg/s
   ** Severe  ** UpdateZoneSizing: Heating supply air temperature (calculated) within 2C of zone temperature
   **   ~~~   ** ...check zone thermostat set point and design supply air temperatures
   **   ~~~   ** ...zone name = BLOCK1:ZONE1
   **   ~~~   ** ...design heating load         = 1207.95 W
   **   ~~~   ** ...thermostat set point temp   = 21.797 C
   **   ~~~   ** ...zone temperature            = 23.546 C
   **   ~~~   ** ...supply air temperature      = 24.046 C
   **   ~~~   ** ...temperature difference      = 0.50000 C
   **   ~~~   ** ...calculated volume flow rate = 2.01064 m3/s
   **   ~~~   ** ...calculated mass flow rate   = 2.38661 kg/s
   ** Warning ** GetVRFInput: AirConditioner:VariableRefrigerantFlow="VRF OUTDOOR UNIT_BLOCK1:ZONE2" curve values
   **   ~~~   ** ... Cooling Capacity Ratio Modifier Function of Low Temperature Curve Name = VRFCOOLCAPFT output is not equal to 1.0 (+ or - 10%) at rated conditions.
   **   ~~~   ** ... Curve output at rated conditions = 1.136
   ** Warning ** AirConditioner:VariableRefrigerantFlow = "VRF OUTDOOR UNIT_BLOCK1:ZONE2", Minimum Condenser Inlet Node Temperature in Heat Recovery Mode is less than the minimum temperature in heat pump mode.
   **   ~~~   ** ...Minimum Condenser Inlet Node Temperature in Heat Recovery Mode = -9.99 C
   **   ~~~   ** ...Minimum Outdoor Temperature in Cooling Mode = -5.99 C
   **   ~~~   ** ...Minimum Outdoor Temperature in Heating Mode = -19.99 C
   **   ~~~   ** ...Minimum Outdoor Temperature in Heat Recovery Mode reset to greater of cooling or heating minimum temperature and simulation continues.
   **   ~~~   ** ... adjusted Minimum Condenser Inlet Node Temperature in Heat Recovery Mode = -5.99 C
   ** Warning ** GetVRFInput: AirConditioner:VariableRefrigerantFlow="VRF OUTDOOR UNIT_BLOCK1:ZONE1" curve values
   **   ~~~   ** ... Cooling Capacity Ratio Modifier Function of Low Temperature Curve Name = VRFCOOLCAPFT output is not equal to 1.0 (+ or - 10%) at rated conditions.
   **   ~~~   ** ... Curve output at rated conditions = 1.136
   ** Warning ** AirConditioner:VariableRefrigerantFlow = "VRF OUTDOOR UNIT_BLOCK1:ZONE1", Minimum Condenser Inlet Node Temperature in Heat Recovery Mode is less than the minimum temperature in heat pump mode.
   **   ~~~   ** ...Minimum Condenser Inlet Node Temperature in Heat Recovery Mode = -9.99 C
   **   ~~~   ** ...Minimum Outdoor Temperature in Cooling Mode = -5.99 C
   **   ~~~   ** ...Minimum Outdoor Temperature in Heating Mode = -19.99 C
   **   ~~~   ** ...Minimum Outdoor Temperature in Heat Recovery Mode reset to greater of cooling or heating minimum temperature and simulation continues.
   **   ~~~   ** ... adjusted Minimum Condenser Inlet Node Temperature in Heat Recovery Mode = -5.99 C
   ** Warning ** GetDXCoils: Coil:Cooling:DX:VariableRefrigerantFlow="BLOCK1:ZONE2 VRF INDOOR UNIT DX COOLING COIL" curve values
   **   ~~~   ** ... Cooling Capacity Ratio Modifier Function of Temperature Curve Name = VRFTUCOOLCAPFT output is not equal to 1.0 (+ or - 10%) at rated conditions.
   **   ~~~   ** ... Curve output at rated conditions = 1.136
   ** Warning ** GetDXCoils: Coil:Cooling:DX:VariableRefrigerantFlow="BLOCK1:ZONE1 VRF INDOOR UNIT DX COOLING COIL" curve values
   **   ~~~   ** ... Cooling Capacity Ratio Modifier Function of Temperature Curve Name = VRFTUCOOLCAPFT output is not equal to 1.0 (+ or - 10%) at rated conditions.
   **   ~~~   ** ... Curve output at rated conditions = 1.136
   ** Warning ** ZoneTerminalUnitList "VRF OUTDOOR UNIT_BLOCK1:ZONE2 ZONE LIST"
   ** Warning ** ...Only 1 Terminal Unit connected to system and heat recovery is selected.
   **   ~~~   ** ...Heat recovery will be disabled.
   ** Warning ** AirConditioner:VariableRefrigerantFlow "VRF OUTDOOR UNIT_BLOCK1:ZONE2".
   **   ~~~   ** ...InitVRF: VRF Heat Pump Min/Max Operating Temperature in Cooling Mode Limits have been exceeded and VRF system is disabled.
   **   ~~~   ** ... Outdoor Unit Inlet Air Temperature                 = -7.149
   **   ~~~   ** ... Cooling Minimum Outdoor Unit Inlet Temperature = -5.999
   **   ~~~   ** ... Cooling Maximum Outdoor Unit Inlet Temperature = 43.000
   **   ~~~   ** ... Check VRF Heat Pump Min/Max Outdoor Temperature in Cooling Mode limits.
   **   ~~~   **  During Warmup, Environment=UNTITLED (O1-O1:31-12), at Simulation time=01/01 00:00 - 00:30
   ** Warning ** AirConditioner:VariableRefrigerantFlow "VRF OUTDOOR UNIT_BLOCK1:ZONE1".
   **   ~~~   ** ...InitVRF: VRF Heat Pump Min/Max Operating Temperature in Cooling Mode Limits have been exceeded and VRF system is disabled.
   **   ~~~   ** ... Outdoor Unit Inlet Air Temperature                 = -7.149
   **   ~~~   ** ... Cooling Minimum Outdoor Unit Inlet Temperature = -5.999
   **   ~~~   ** ... Cooling Maximum Outdoor Unit Inlet Temperature = 43.000
   **   ~~~   ** ... Check VRF Heat Pump Min/Max Outdoor Temperature in Cooling Mode limits.
   **   ~~~   **  During Warmup, Environment=UNTITLED (O1-O1:31-12), at Simulation time=01/01 00:00 - 00:30
   ************* Testing Individual Branch Integrity
   ************* All Branches passed integrity testing
   ************* Testing Individual Supply Air Path Integrity
   ************* All Supply Air Paths passed integrity testing
   ************* Testing Individual Return Air Path Integrity
   ************* All Return Air Paths passed integrity testing
   ************* No node connection errors were found.
   ************* Beginning Simulation
   ** Warning ** In Output:Table:Monthly 'EndUseEnergyConsumptionOtherFuelsMonthly' invalid Variable or Meter Name 'EXTERIOREQUIPMENT:OTHERFUEL1'
   ** Warning ** In Output:Table:Monthly 'EndUseEnergyConsumptionOtherFuelsMonthly' invalid Variable or Meter Name 'COOLING:OTHERFUEL1'
   ** Warning ** In Output:Table:Monthly 'EndUseEnergyConsumptionOtherFuelsMonthly' invalid Variable or Meter Name 'HEATING:OTHERFUEL1'
   ** Warning ** In Output:Table:Monthly 'EndUseEnergyConsumptionOtherFuelsMonthly' invalid Variable or Meter Name 'WATERSYSTEMS:OTHERFUEL1'
   ** Warning ** In Output:Table:Monthly 'EndUseEnergyConsumptionOtherFuelsMonthly' invalid Variable or Meter Name 'COGENERATION:OTHERFUEL1'
   ** Warning ** In Output:Table:Monthly 'EndUseEnergyConsumptionOtherFuelsMonthly' invalid Variable or Meter Name 'EXTERIOREQUIPMENT:OTHERFUEL2'
   ** Warning ** In Output:Table:Monthly 'EndUseEnergyConsumptionOtherFuelsMonthly' invalid Variable or Meter Name 'COOLING:OTHERFUEL2'
   ** Warning ** In Output:Table:Monthly 'EndUseEnergyConsumptionOtherFuelsMonthly' invalid Variable or Meter Name 'HEATING:OTHERFUEL2'
   ** Warning ** In Output:Table:Monthly 'EndUseEnergyConsumptionOtherFuelsMonthly' invalid Variable or Meter Name 'WATERSYSTEMS:OTHERFUEL2'
   ** Warning ** In Output:Table:Monthly 'EndUseEnergyConsumptionOtherFuelsMonthly' invalid Variable or Meter Name 'COGENERATION:OTHERFUEL2'
   ** Warning ** In Output:Table:Monthly 'PeakEnergyEndUseOtherFuelsMonthly' invalid Variable or Meter Name 'EXTERIOREQUIPMENT:OTHERFUEL1'
   ** Warning ** In Output:Table:Monthly 'PeakEnergyEndUseOtherFuelsMonthly' invalid Variable or Meter Name 'COOLING:OTHERFUEL1'
   ** Warning ** In Output:Table:Monthly 'PeakEnergyEndUseOtherFuelsMonthly' invalid Variable or Meter Name 'HEATING:OTHERFUEL1'
   ** Warning ** In Output:Table:Monthly 'PeakEnergyEndUseOtherFuelsMonthly' invalid Variable or Meter Name 'WATERSYSTEMS:OTHERFUEL1'
   ** Warning ** In Output:Table:Monthly 'PeakEnergyEndUseOtherFuelsMonthly' invalid Variable or Meter Name 'COGENERATION:OTHERFUEL1'
   ** Warning ** In Output:Table:Monthly 'PeakEnergyEndUseOtherFuelsMonthly' invalid Variable or Meter Name 'EXTERIOREQUIPMENT:OTHERFUEL2'
   ** Warning ** In Output:Table:Monthly 'PeakEnergyEndUseOtherFuelsMonthly' invalid Variable or Meter Name 'COOLING:OTHERFUEL2'
   ** Warning ** In Output:Table:Monthly 'PeakEnergyEndUseOtherFuelsMonthly' invalid Variable or Meter Name 'HEATING:OTHERFUEL2'
   ** Warning ** In Output:Table:Monthly 'PeakEnergyEndUseOtherFuelsMonthly' invalid Variable or Meter Name 'WATERSYSTEMS:OTHERFUEL2'
   ** Warning ** In Output:Table:Monthly 'PeakEnergyEndUseOtherFuelsMonthly' invalid Variable or Meter Name 'COGENERATION:OTHERFUEL2'
   ** Warning ** Processing Monthly Tabular Reports: Variable names not valid for this simulation
   **   ~~~   ** ...use Output:Diagnostics,DisplayExtraWarnings; to show more details on individual variables.
   ** Warning ** AirConditioner:VariableRefrigerantFlow "VRF OUTDOOR UNIT_BLOCK1:ZONE1".
   **   ~~~   ** ...InitVRF: VRF Heat Pump Min/Max Operating Temperature in Heating Mode Limits have been exceeded and VRF system is disabled.
   **   ~~~   ** ... Outdoor Unit Inlet Air Temperature             = -20.349
   **   ~~~   ** ... Heating Minimum Outdoor Unit Inlet Temperature = -19.999
   **   ~~~   ** ... Heating Maximum Outdoor Unit Inlet Temperature = 40.000
   **   ~~~   ** ... Check VRF Heat Pump Min/Max Outdoor Temperature in Heating Mode limits.
   **   ~~~   **  Environment=UNTITLED (O1-O1:31-12), at Simulation time=01/24 00:00 - 00:30
   ************* Simulation Error Summary *************
   ** Warning ** The following Report Variables were requested but not generated -- check.rdd file
   **   ~~~   ** Either the IDF did not contain these elements, the variable name is misspelled,
   **   ~~~   ** or the requested variable is an advanced output which requires Output : Diagnostics, DisplayAdvancedReportVariables;
   ************* Key=*, VarName=ZONE THERMOSTAT OPERATIVE TEMPERATURE, Frequency=Hourly
   ************* Key=*, VarName=FACILITY TOTAL HVAC ELECTRIC DEMAND POWER, Frequency=Hourly
   ************* Key=BLOCK1_ZONE2 VRF Indoor Unit DX Cooling Coil, VarName=COOLING COIL TOTAL COOLING RATE, Frequency=Hourly
   ************* Key=BLOCK1_ZONE2 VRF Indoor Unit DX Heating Coil, VarName=HEATING COIL HEATING RATE, Frequency=Hourly
   ************* Key=BLOCK1_ZONE1 VRF Indoor Unit DX Cooling Coil, VarName=COOLING COIL TOTAL COOLING RATE, Frequency=Hourly
   ************* Key=BLOCK1_ZONE1 VRF Indoor Unit DX Heating Coil, VarName=HEATING COIL HEATING RATE, Frequency=Hourly
   ** Severe  ** Orphaned ZoneHVAC object found.  This was object never referenced in the input, and was not used.
   **   ~~~   **  -- Object type: ZoneHVAC:IdealLoadsAirSystem
   **   ~~~   **  -- Object name: Block1:Zone1 Ideal Loads Air
   ** Severe  ** Orphaned ZoneHVAC object found.  This was object never referenced in the input, and was not used.
   **   ~~~   **  -- Object type: ZoneHVAC:IdealLoadsAirSystem
   **   ~~~   **  -- Object name: Block1:Zone2 Ideal Loads Air
   ************* There are 3 unused objects in input.
   ************* Use Output:Diagnostics,DisplayUnusedObjects; to see them.
   ************* There are 22 unused schedules in input.
   ************* There are 5 unused week schedules in input.
   ************* There are 7 unused day schedules in input.
   ************* Use Output:Diagnostics,DisplayUnusedSchedules; to see them.
   *************
   ************* ===== Recurring Error Summary =====
   ************* The following recurring error messages occurred.
   *************
   *************  ** Warning ** AirConditioner:VariableRefrigerantFlow "VRF OUTDOOR UNIT_BLOCK1:ZONE2" -- Exceeded VRF Heat Pump min/max cooling temperature limit error continues...
   *************  **   ~~~   **   This error occurred 4460 total times;
   *************  **   ~~~   **   during Warmup 38 times;
   *************  **   ~~~   **   during Sizing 0 times.
   *************  **   ~~~   **   Max=-6.05  Min=-20.35
   *************
   *************  ** Warning ** AirConditioner:VariableRefrigerantFlow "VRF OUTDOOR UNIT_BLOCK1:ZONE1" -- Exceeded VRF Heat Pump min/max cooling temperature limit error continues...
   *************  **   ~~~   **   This error occurred 453 total times;
   *************  **   ~~~   **   during Warmup 3 times;
   *************  **   ~~~   **   during Sizing 0 times.
   *************  **   ~~~   **   Max=-6.05  Min=-14.
   *************
   *************  ** Warning ** AirConditioner:VariableRefrigerantFlow "VRF OUTDOOR UNIT_BLOCK1:ZONE1" -- Exceeded VRF Heat Pump min/max heating temperature limit error continues...
   *************  **   ~~~   **   This error occurred 28 total times;
   *************  **   ~~~   **   during Warmup 0 times;
   *************  **   ~~~   **   during Sizing 0 times.
   *************  **   ~~~   **   Max=-20.35  Min=-21.1
   *************
   *************
   ************* ===== Final Error Summary =====
   ************* The following error categories occurred.  Consider correcting or noting.
   ************* Nominally Unused Constructions
   ************* ..The nominally unused constructions warning is provided to alert you to potential conditions that can cause
   ************* ..extra time during simulation. Each construction is calculated by the algorithm indicated in the HeatBalanceAlgorithm
   ************* ..object. You may remove the constructions indicated (when you use the DisplayExtraWarnings option).
   *************
   ************* EnergyPlus Warmup Error Summary. During Warmup: 0 Warning; 0 Severe Errors.
   ************* EnergyPlus Sizing Error Summary. During Sizing: 13 Warning; 4 Severe Errors.
   ************* EnergyPlus Completed Successfully-- 4977 Warning; 6 Severe Errors; Elapsed Time=00hr 00min  9.74sec
