Program Version,EnergyPlus, Version 23.2.0-7636e6b3e9, YMD=2024.03.22 17:29,
   ** Warning ** ProcessScheduleInput: Schedule:Day:Interval="ECONOMIZER MAX OA FRACTION 70 PCT DEFAULT", Blank Schedule Type Limits Name input -- will not be validated.
   ** Warning ** ProcessScheduleInput: Schedule:Day:Interval="OFFICESMALL_BUSINESS_SCH DEFAULT", Blank Schedule Type Limits Name input -- will not be validated.
   ** Warning ** ProcessScheduleInput: Schedule:Day:Interval="OFFICESMALL_BUSINESS_SCH SUMMER DESIGN DAY", Blank Schedule Type Limits Name input -- will not be validated.
   ** Warning ** ProcessScheduleInput: Schedule:Day:Interval="OFFICESMALL_BUSINESS_SCH WINTER DESIGN DAY", Blank Schedule Type Limits Name input -- will not be validated.
   ** Warning ** ProcessScheduleInput: Schedule:Day:Interval="OFFICESMALL_BUSINESS_SCH WKDY DAY", Blank Schedule Type Limits Name input -- will not be validated.
   ** Warning ** ProcessScheduleInput: Schedule:Year="OFFICESMALL_BUSINESS_SCH", Blank Schedule Type Limits Name input -- will not be validated.
   ** Warning ** ProcessScheduleInput: Schedule:Constant="ALWAYS OFF DISCRETE", Blank Schedule Type Limits Name input -- will not be validated.
   ** Warning ** ProcessScheduleInput: Schedule:Constant="ALWAYS ON CONTINUOUS", Blank Schedule Type Limits Name input -- will not be validated.
   ************* Beginning Zone Sizing Calculations
   ** Warning ** Weather file location will be used rather than entered (IDF) Location object.
   **   ~~~   ** ..Location object=HONOLULU INTL ARPT_HI_USA
   **   ~~~   ** ..Weather File Location=Mulchen - - MN8 WMO#=999
   **   ~~~   ** ..due to location differences, Latitude difference=[59.04] degrees, Longitude difference=[85.69] degrees.
   **   ~~~   ** ..Time Zone difference=[6.0] hour(s), Elevation difference=[6700.00] percent, [134.00] meters.
   ** Warning ** CheckUsedConstructions: There are 16 nominally unused constructions in input.
   **   ~~~   ** For explicit details on each unused construction, use Output:Diagnostics,DisplayExtraWarnings;
   ** Severe  ** GetRuntimeLanguageUserInput: EnergyManagementSystem:OutputVariable="Comfortable Hours_No Applicability_Core_ZN invalid field.
   **   ~~~   ** Invalid EMS Variable Name=COMFHOURSNOAPP_CORE_ZN
   **   ~~~   ** EMS variable not found among global variables.
   ** Severe  ** GetRuntimeLanguageUserInput: EnergyManagementSystem:OutputVariable="Comfortable Hours_No Applicability_Perimeter_ZN_1 invalid field.
   **   ~~~   ** Invalid EMS Variable Name=COMFHOURSNOAPP_PERIMETER_ZN_1
   **   ~~~   ** EMS variable not found among global variables.
   ** Severe  ** GetRuntimeLanguageUserInput: EnergyManagementSystem:OutputVariable="Comfortable Hours_No Applicability_Perimeter_ZN_2 invalid field.
   **   ~~~   ** Invalid EMS Variable Name=COMFHOURSNOAPP_PERIMETER_ZN_2
   **   ~~~   ** EMS variable not found among global variables.
   ** Severe  ** GetRuntimeLanguageUserInput: EnergyManagementSystem:OutputVariable="Comfortable Hours_No Applicability_Perimeter_ZN_3 invalid field.
   **   ~~~   ** Invalid EMS Variable Name=COMFHOURSNOAPP_PERIMETER_ZN_3
   **   ~~~   ** EMS variable not found among global variables.
   ** Severe  ** GetRuntimeLanguageUserInput: EnergyManagementSystem:OutputVariable="Comfortable Hours_No Applicability_Perimeter_ZN_4 invalid field.
   **   ~~~   ** Invalid EMS Variable Name=COMFHOURSNOAPP_PERIMETER_ZN_4
   **   ~~~   ** EMS variable not found among global variables.
   ** Severe  ** GetRuntimeLanguageUserInput: EnergyManagementSystem:OutputVariable="Comfortable Hours_Applicability_Core_ZN invalid field.
   **   ~~~   ** Invalid EMS Variable Name=COMFHOURS_CORE_ZN
   **   ~~~   ** EMS variable not found among global variables.
   ** Severe  ** GetRuntimeLanguageUserInput: EnergyManagementSystem:OutputVariable="Comfortable Hours_Applicability_Perimeter_ZN_1 invalid field.
   **   ~~~   ** Invalid EMS Variable Name=COMFHOURS_PERIMETER_ZN_1
   **   ~~~   ** EMS variable not found among global variables.
   ** Severe  ** GetRuntimeLanguageUserInput: EnergyManagementSystem:OutputVariable="Comfortable Hours_Applicability_Perimeter_ZN_2 invalid field.
   **   ~~~   ** Invalid EMS Variable Name=COMFHOURS_PERIMETER_ZN_2
   **   ~~~   ** EMS variable not found among global variables.
   ** Severe  ** GetRuntimeLanguageUserInput: EnergyManagementSystem:OutputVariable="Comfortable Hours_Applicability_Perimeter_ZN_3 invalid field.
   **   ~~~   ** Invalid EMS Variable Name=COMFHOURS_PERIMETER_ZN_3
   **   ~~~   ** EMS variable not found among global variables.
   ** Severe  ** GetRuntimeLanguageUserInput: EnergyManagementSystem:OutputVariable="Comfortable Hours_Applicability_Perimeter_ZN_4 invalid field.
   **   ~~~   ** Invalid EMS Variable Name=COMFHOURS_PERIMETER_ZN_4
   **   ~~~   ** EMS variable not found among global variables.
   ** Severe  ** GetRuntimeLanguageUserInput: EnergyManagementSystem:OutputVariable="Occupied Comfortable Hours_No Applicability_Core_ZN invalid field.
   **   ~~~   ** Invalid EMS Variable Name=OCCCOMFHOURSNOAPP_CORE_ZN
   **   ~~~   ** EMS variable not found among global variables.
   ** Severe  ** GetRuntimeLanguageUserInput: EnergyManagementSystem:OutputVariable="Occupied Comfortable Hours_No Applicability_Perimeter_ZN_1 invalid field.
   **   ~~~   ** Invalid EMS Variable Name=OCCCOMFHOURSNOAPP_PERIMETER_ZN_1
   **   ~~~   ** EMS variable not found among global variables.
   ** Severe  ** GetRuntimeLanguageUserInput: EnergyManagementSystem:OutputVariable="Occupied Comfortable Hours_No Applicability_Perimeter_ZN_2 invalid field.
   **   ~~~   ** Invalid EMS Variable Name=OCCCOMFHOURSNOAPP_PERIMETER_ZN_2
   **   ~~~   ** EMS variable not found among global variables.
   ** Severe  ** GetRuntimeLanguageUserInput: EnergyManagementSystem:OutputVariable="Occupied Comfortable Hours_No Applicability_Perimeter_ZN_3 invalid field.
   **   ~~~   ** Invalid EMS Variable Name=OCCCOMFHOURSNOAPP_PERIMETER_ZN_3
   **   ~~~   ** EMS variable not found among global variables.
   ** Severe  ** GetRuntimeLanguageUserInput: EnergyManagementSystem:OutputVariable="Occupied Comfortable Hours_No Applicability_Perimeter_ZN_4 invalid field.
   **   ~~~   ** Invalid EMS Variable Name=OCCCOMFHOURSNOAPP_PERIMETER_ZN_4
   **   ~~~   ** EMS variable not found among global variables.
   ** Severe  ** GetRuntimeLanguageUserInput: EnergyManagementSystem:OutputVariable="Occupied Hours_Core_ZN invalid field.
   **   ~~~   ** Invalid EMS Variable Name=OCCHOURS_CORE_ZN
   **   ~~~   ** EMS variable not found among global variables.
   ** Severe  ** GetRuntimeLanguageUserInput: EnergyManagementSystem:OutputVariable="Occupied Hours_Perimeter_ZN_1 invalid field.
   **   ~~~   ** Invalid EMS Variable Name=OCCHOURS_PERIMETER_ZN_1
   **   ~~~   ** EMS variable not found among global variables.
   ** Severe  ** GetRuntimeLanguageUserInput: EnergyManagementSystem:OutputVariable="Occupied Hours_Perimeter_ZN_2 invalid field.
   **   ~~~   ** Invalid EMS Variable Name=OCCHOURS_PERIMETER_ZN_2
   **   ~~~   ** EMS variable not found among global variables.
   ** Severe  ** GetRuntimeLanguageUserInput: EnergyManagementSystem:OutputVariable="Occupied Hours_Perimeter_ZN_3 invalid field.
   **   ~~~   ** Invalid EMS Variable Name=OCCHOURS_PERIMETER_ZN_3
   **   ~~~   ** EMS variable not found among global variables.
   ** Severe  ** GetRuntimeLanguageUserInput: EnergyManagementSystem:OutputVariable="Occupied Hours_Perimeter_ZN_4 invalid field.
   **   ~~~   ** Invalid EMS Variable Name=OCCHOURS_PERIMETER_ZN_4
   **   ~~~   ** EMS variable not found among global variables.
   ** Severe  ** GetRuntimeLanguageUserInput: EnergyManagementSystem:OutputVariable="Discomfortable Applicable Hot Hours_Core_ZN invalid field.
   **   ~~~   ** Invalid EMS Variable Name=DISCOMFAPPHOTHOURS_CORE_ZN
   **   ~~~   ** EMS variable not found among global variables.
   ** Severe  ** GetRuntimeLanguageUserInput: EnergyManagementSystem:OutputVariable="Discomfortable Applicable Hot Hours_Perimeter_ZN_1 invalid field.
   **   ~~~   ** Invalid EMS Variable Name=DISCOMFAPPHOTHOURS_PERIMETER_ZN_1
   **   ~~~   ** EMS variable not found among global variables.
   ** Severe  ** GetRuntimeLanguageUserInput: EnergyManagementSystem:OutputVariable="Discomfortable Applicable Hot Hours_Perimeter_ZN_2 invalid field.
   **   ~~~   ** Invalid EMS Variable Name=DISCOMFAPPHOTHOURS_PERIMETER_ZN_2
   **   ~~~   ** EMS variable not found among global variables.
   ** Severe  ** GetRuntimeLanguageUserInput: EnergyManagementSystem:OutputVariable="Discomfortable Applicable Hot Hours_Perimeter_ZN_3 invalid field.
   **   ~~~   ** Invalid EMS Variable Name=DISCOMFAPPHOTHOURS_PERIMETER_ZN_3
   **   ~~~   ** EMS variable not found among global variables.
   ** Severe  ** GetRuntimeLanguageUserInput: EnergyManagementSystem:OutputVariable="Discomfortable Applicable Hot Hours_Perimeter_ZN_4 invalid field.
   **   ~~~   ** Invalid EMS Variable Name=DISCOMFAPPHOTHOURS_PERIMETER_ZN_4
   **   ~~~   ** EMS variable not found among global variables.
   ** Severe  ** GetRuntimeLanguageUserInput: EnergyManagementSystem:OutputVariable="Discomfortable Applicable Cold Hours_Core_ZN invalid field.
   **   ~~~   ** Invalid EMS Variable Name=DISCOMFAPPCOLDHOURS_CORE_ZN
   **   ~~~   ** EMS variable not found among global variables.
   ** Severe  ** GetRuntimeLanguageUserInput: EnergyManagementSystem:OutputVariable="Discomfortable Applicable Cold Hours_Perimeter_ZN_1 invalid field.
   **   ~~~   ** Invalid EMS Variable Name=DISCOMFAPPCOLDHOURS_PERIMETER_ZN_1
   **   ~~~   ** EMS variable not found among global variables.
   ** Severe  ** GetRuntimeLanguageUserInput: EnergyManagementSystem:OutputVariable="Discomfortable Applicable Cold Hours_Perimeter_ZN_2 invalid field.
   **   ~~~   ** Invalid EMS Variable Name=DISCOMFAPPCOLDHOURS_PERIMETER_ZN_2
   **   ~~~   ** EMS variable not found among global variables.
   ** Severe  ** GetRuntimeLanguageUserInput: EnergyManagementSystem:OutputVariable="Discomfortable Applicable Cold Hours_Perimeter_ZN_3 invalid field.
   **   ~~~   ** Invalid EMS Variable Name=DISCOMFAPPCOLDHOURS_PERIMETER_ZN_3
   **   ~~~   ** EMS variable not found among global variables.
   ** Severe  ** GetRuntimeLanguageUserInput: EnergyManagementSystem:OutputVariable="Discomfortable Applicable Cold Hours_Perimeter_ZN_4 invalid field.
   **   ~~~   ** Invalid EMS Variable Name=DISCOMFAPPCOLDHOURS_PERIMETER_ZN_4
   **   ~~~   ** EMS variable not found among global variables.
   ** Severe  ** GetRuntimeLanguageUserInput: EnergyManagementSystem:OutputVariable="Discomfortable Non Applicable Hot Hours_Core_ZN invalid field.
   **   ~~~   ** Invalid EMS Variable Name=DISCOMFNONAPPHOTHOURS_CORE_ZN
   **   ~~~   ** EMS variable not found among global variables.
   ** Severe  ** GetRuntimeLanguageUserInput: EnergyManagementSystem:OutputVariable="Discomfortable Non Applicable Hot Hours_Perimeter_ZN_1 invalid field.
   **   ~~~   ** Invalid EMS Variable Name=DISCOMFNONAPPHOTHOURS_PERIMETER_ZN_1
   **   ~~~   ** EMS variable not found among global variables.
   ** Severe  ** GetRuntimeLanguageUserInput: EnergyManagementSystem:OutputVariable="Discomfortable Non Applicable Hot Hours_Perimeter_ZN_2 invalid field.
   **   ~~~   ** Invalid EMS Variable Name=DISCOMFNONAPPHOTHOURS_PERIMETER_ZN_2
   **   ~~~   ** EMS variable not found among global variables.
   ** Severe  ** GetRuntimeLanguageUserInput: EnergyManagementSystem:OutputVariable="Discomfortable Non Applicable Hot Hours_Perimeter_ZN_3 invalid field.
   **   ~~~   ** Invalid EMS Variable Name=DISCOMFNONAPPHOTHOURS_PERIMETER_ZN_3
   **   ~~~   ** EMS variable not found among global variables.
   ** Severe  ** GetRuntimeLanguageUserInput: EnergyManagementSystem:OutputVariable="Discomfortable Non Applicable Hot Hours_Perimeter_ZN_4 invalid field.
   **   ~~~   ** Invalid EMS Variable Name=DISCOMFNONAPPHOTHOURS_PERIMETER_ZN_4
   **   ~~~   ** EMS variable not found among global variables.
   ** Severe  ** GetRuntimeLanguageUserInput: EnergyManagementSystem:OutputVariable="Discomfortable Non Applicable Cold Hours_Core_ZN invalid field.
   **   ~~~   ** Invalid EMS Variable Name=DISCOMFNONAPPCOLDHOURS_CORE_ZN
   **   ~~~   ** EMS variable not found among global variables.
   ** Severe  ** GetRuntimeLanguageUserInput: EnergyManagementSystem:OutputVariable="Discomfortable Non Applicable Cold Hours_Perimeter_ZN_1 invalid field.
   **   ~~~   ** Invalid EMS Variable Name=DISCOMFNONAPPCOLDHOURS_PERIMETER_ZN_1
   **   ~~~   ** EMS variable not found among global variables.
   ** Severe  ** GetRuntimeLanguageUserInput: EnergyManagementSystem:OutputVariable="Discomfortable Non Applicable Cold Hours_Perimeter_ZN_2 invalid field.
   **   ~~~   ** Invalid EMS Variable Name=DISCOMFNONAPPCOLDHOURS_PERIMETER_ZN_2
   **   ~~~   ** EMS variable not found among global variables.
   ** Severe  ** GetRuntimeLanguageUserInput: EnergyManagementSystem:OutputVariable="Discomfortable Non Applicable Cold Hours_Perimeter_ZN_3 invalid field.
   **   ~~~   ** Invalid EMS Variable Name=DISCOMFNONAPPCOLDHOURS_PERIMETER_ZN_3
   **   ~~~   ** EMS variable not found among global variables.
   ** Severe  ** GetRuntimeLanguageUserInput: EnergyManagementSystem:OutputVariable="Discomfortable Non Applicable Cold Hours_Perimeter_ZN_4 invalid field.
   **   ~~~   ** Invalid EMS Variable Name=DISCOMFNONAPPCOLDHOURS_PERIMETER_ZN_4
   **   ~~~   ** EMS variable not found among global variables.
   ** Severe  ** GetRuntimeLanguageUserInput: EnergyManagementSystem:OutputVariable="Zone Floor Area_Core_ZN invalid field.
   **   ~~~   ** Invalid EMS Variable Name=ZONEFLOORAREA_CORE_ZN
   **   ~~~   ** EMS variable not found among global variables.
   ** Severe  ** GetRuntimeLanguageUserInput: EnergyManagementSystem:OutputVariable="Zone Floor Area_Perimeter_ZN_1 invalid field.
   **   ~~~   ** Invalid EMS Variable Name=ZONEFLOORAREA_PERIMETER_ZN_1
   **   ~~~   ** EMS variable not found among global variables.
   ** Severe  ** GetRuntimeLanguageUserInput: EnergyManagementSystem:OutputVariable="Zone Floor Area_Perimeter_ZN_2 invalid field.
   **   ~~~   ** Invalid EMS Variable Name=ZONEFLOORAREA_PERIMETER_ZN_2
   **   ~~~   ** EMS variable not found among global variables.
   ** Severe  ** GetRuntimeLanguageUserInput: EnergyManagementSystem:OutputVariable="Zone Floor Area_Perimeter_ZN_3 invalid field.
   **   ~~~   ** Invalid EMS Variable Name=ZONEFLOORAREA_PERIMETER_ZN_3
   **   ~~~   ** EMS variable not found among global variables.
   ** Severe  ** GetRuntimeLanguageUserInput: EnergyManagementSystem:OutputVariable="Zone Floor Area_Perimeter_ZN_4 invalid field.
   **   ~~~   ** Invalid EMS Variable Name=ZONEFLOORAREA_PERIMETER_ZN_4
   **   ~~~   ** EMS variable not found among global variables.
   ** Severe  ** GetRuntimeLanguageUserInput: EnergyManagementSystem:OutputVariable="Zone Air Volume_Core_ZN invalid field.
   **   ~~~   ** Invalid EMS Variable Name=ZONEAIRVOLUME_CORE_ZN
   **   ~~~   ** EMS variable not found among global variables.
   ** Severe  ** GetRuntimeLanguageUserInput: EnergyManagementSystem:OutputVariable="Zone Air Volume_Perimeter_ZN_1 invalid field.
   **   ~~~   ** Invalid EMS Variable Name=ZONEAIRVOLUME_PERIMETER_ZN_1
   **   ~~~   ** EMS variable not found among global variables.
   ** Severe  ** GetRuntimeLanguageUserInput: EnergyManagementSystem:OutputVariable="Zone Air Volume_Perimeter_ZN_2 invalid field.
   **   ~~~   ** Invalid EMS Variable Name=ZONEAIRVOLUME_PERIMETER_ZN_2
   **   ~~~   ** EMS variable not found among global variables.
   ** Severe  ** GetRuntimeLanguageUserInput: EnergyManagementSystem:OutputVariable="Zone Air Volume_Perimeter_ZN_3 invalid field.
   **   ~~~   ** Invalid EMS Variable Name=ZONEAIRVOLUME_PERIMETER_ZN_3
   **   ~~~   ** EMS variable not found among global variables.
   ** Severe  ** GetRuntimeLanguageUserInput: EnergyManagementSystem:OutputVariable="Zone Air Volume_Perimeter_ZN_4 invalid field.
   **   ~~~   ** Invalid EMS Variable Name=ZONEAIRVOLUME_PERIMETER_ZN_4
   **   ~~~   ** EMS variable not found among global variables.
   **  Fatal  ** Errors found in getting EMS Runtime Language input. Preceding condition causes termination.
   ...Summary of Errors that led to program termination:
   ..... Reference severe error count=50
   ..... Last severe error=GetRuntimeLanguageUserInput: EnergyManagementSystem:OutputVariable="Zone Air Volume_Perimeter_ZN_4 invalid field.
   ************* Warning:  Node connection errors not checked - most system input has not been read (see previous warning).
   ************* Fatal error -- final processing.  Program exited before simulations began.  See previous error messages.
   *************
   ************* ===== Final Error Summary =====
   ************* The following error categories occurred.  Consider correcting or noting.
   ************* Nominally Unused Constructions
   ************* ..The nominally unused constructions warning is provided to alert you to potential conditions that can cause
   ************* ..extra time during simulation. Each construction is calculated by the algorithm indicated in the HeatBalanceAlgorithm
   ************* ..object. You may remove the constructions indicated (when you use the DisplayExtraWarnings option).
   *************
   ************* EnergyPlus Warmup Error Summary. During Warmup: 0 Warning; 0 Severe Errors.
   ************* EnergyPlus Sizing Error Summary. During Sizing: 10 Warning; 50 Severe Errors.
   ************* EnergyPlus Terminated--Fatal Error Detected. 10 Warning; 50 Severe Errors; Elapsed Time=00hr 00min  0.61sec
