Program Version,EnergyPlus, Version 9.4.0-998c4b761e, YMD=2023.11.21 16:24,
   ************* Beginning Zone Sizing Calculations
   ** Warning ** Weather file location will be used rather than entered (IDF) Location object.
   **   ~~~   ** ..Location object=UNTITLED (01-01:31-12)  (01-01:31-12)
   **   ~~~   ** ..Weather File Location=SEVILLA - ESP IWEC Data WMO#=083910
   **   ~~~   ** ..due to location differences, Latitude difference=[0.24] degrees, Longitude difference=[2.12] degrees.
   **   ~~~   ** ..Time Zone difference=[0.0] hour(s), Elevation difference=[94.56] percent, [539.00] meters.
   ** Warning ** GetSurfaceData: Construction PROJECT PARTITION of interzone surface BLOCK1:ZONE2_PARTITION_5_0_0 does not have the same materials in the reverse order as the construction PROJECT PARTITION_REV of adjacent surface BLOCK1:ZONE1_PARTITION_3_0_10000
   **   ~~~   ** or the properties of the reversed layers are not correct due to differing layer front and back side values
   **   ~~~   ** ...but Nominal U values are similar, diff=[0.0000] ... simulation proceeds.
   **   ~~~   ** ...if the two zones are expected to have significantly different temperatures, the proper "reverse" construction should be created.
   **   ~~~   ** ...this problem for this pair will not be reported again.
   ** Warning ** GetSurfaceData: Entered Zone Floor Areas differ from calculated Zone Floor Area(s).
   **   ~~~   ** ...use Output:Diagnostics,DisplayExtraWarnings; to show more details on individual zones.
   ************* Note that the following warning(s) may/will occur if you have not enclosed your zone completely.
   ** Warning ** Entered Zone Volumes differ from calculated zone volume(s).
   **   ~~~   ** ...use Output:Diagnostics,DisplayExtraWarnings; to show more details on individual zones.
   ** Warning ** CheckUsedConstructions: There are 5 nominally unused constructions in input.
   **   ~~~   ** For explicit details on each unused construction, use Output:Diagnostics,DisplayExtraWarnings;
   ** Severe  ** UpdateZoneSizing: Cooling supply air temperature (calculated) within 2C of zone temperature
   **   ~~~   ** ...check zone thermostat set point and design supply air temperatures
   **   ~~~   ** ...zone name = BLOCK1:ZONE2
   **   ~~~   ** ...design sensible cooling load = 10855.43 W
   **   ~~~   ** ...thermostat set point temp    = 0.000 C
   **   ~~~   ** ...zone temperature             = 22.014 C
   **   ~~~   ** ...supply air temperature       = 21.014 C
   **   ~~~   ** ...temperature difference       = -1.00000 C
   **   ~~~   ** ...calculated volume flow rate  = 8.85600 m3/s
   **   ~~~   ** ...calculated mass flow rate    = 10.62621 kg/s
   ** Severe  ** UpdateZoneSizing: Heating supply air temperature (calculated) within 2C of zone temperature
   **   ~~~   ** ...check zone thermostat set point and design supply air temperatures
   **   ~~~   ** ...zone name = BLOCK1:ZONE2
   **   ~~~   ** ...design heating load         = 4825.15 W
   **   ~~~   ** ...thermostat set point temp   = 0.000 C
   **   ~~~   ** ...zone temperature            = 24.706 C
   **   ~~~   ** ...supply air temperature      = 25.706 C
   **   ~~~   ** ...temperature difference      = 1.00000 C
   **   ~~~   ** ...calculated volume flow rate = 3.97256 m3/s
   **   ~~~   ** ...calculated mass flow rate   = 4.76664 kg/s
   ** Severe  ** UpdateZoneSizing: Cooling supply air temperature (calculated) within 2C of zone temperature
   **   ~~~   ** ...check zone thermostat set point and design supply air temperatures
   **   ~~~   ** ...zone name = BLOCK1:ZONE1
   **   ~~~   ** ...design sensible cooling load = 11260.46 W
   **   ~~~   ** ...thermostat set point temp    = 0.000 C
   **   ~~~   ** ...zone temperature             = 21.995 C
   **   ~~~   ** ...supply air temperature       = 20.995 C
   **   ~~~   ** ...temperature difference       = -1.00000 C
   **   ~~~   ** ...calculated volume flow rate  = 9.18642 m3/s
   **   ~~~   ** ...calculated mass flow rate    = 11.02269 kg/s
   ** Severe  ** UpdateZoneSizing: Heating supply air temperature (calculated) within 2C of zone temperature
   **   ~~~   ** ...check zone thermostat set point and design supply air temperatures
   **   ~~~   ** ...zone name = BLOCK1:ZONE1
   **   ~~~   ** ...design heating load         = 4859.56 W
   **   ~~~   ** ...thermostat set point temp   = 0.000 C
   **   ~~~   ** ...zone temperature            = 24.790 C
   **   ~~~   ** ...supply air temperature      = 25.790 C
   **   ~~~   ** ...temperature difference      = 1.00000 C
   **   ~~~   ** ...calculated volume flow rate = 4.00089 m3/s
   **   ~~~   ** ...calculated mass flow rate   = 4.80062 kg/s
   ** Warning ** GetVRFInput: AirConditioner:VariableRefrigerantFlow="VRF OUTDOOR UNIT" curve values
   **   ~~~   ** ... Cooling Capacity Ratio Modifier Function of Low Temperature Curve Name = VRFCOOLCAPFT output is not equal to 1.0 (+ or - 10%) at rated conditions.
   **   ~~~   ** ... Curve output at rated conditions = 1.136
   ** Warning ** GetDXCoils: Coil:Cooling:DX:VariableRefrigerantFlow="BLOCK1:ZONE2 VRF INDOOR UNIT DX COOLING COIL" curve values
   **   ~~~   ** ... Cooling Capacity Ratio Modifier Function of Temperature Curve Name = VRFTUCOOLCAPFT output is not equal to 1.0 (+ or - 10%) at rated conditions.
   **   ~~~   ** ... Curve output at rated conditions = 1.136
   ** Warning ** GetDXCoils: Coil:Cooling:DX:VariableRefrigerantFlow="BLOCK1:ZONE1 VRF INDOOR UNIT DX COOLING COIL" curve values
   **   ~~~   ** ... Cooling Capacity Ratio Modifier Function of Temperature Curve Name = VRFTUCOOLCAPFT output is not equal to 1.0 (+ or - 10%) at rated conditions.
   **   ~~~   ** ... Curve output at rated conditions = 1.136
   ** Warning ** ManageSizing: For a plant sizing run, there must be at least 1 Sizing:Plant object input. SimulationControl Plant Sizing option ignored.
   ************* Testing Individual Branch Integrity
   ************* All Branches passed integrity testing
   ************* Testing Individual Supply Air Path Integrity
   ************* All Supply Air Paths passed integrity testing
   ************* Testing Individual Return Air Path Integrity
   ************* All Return Air Paths passed integrity testing
   ************* No node connection errors were found.
   ************* Beginning Simulation
   ** Warning ** Processing Monthly Tabular Reports: Variable names not valid for this simulation
   **   ~~~   ** ...use Output:Diagnostics,DisplayExtraWarnings; to show more details on individual variables.
   ************* Simulation Error Summary *************
   ** Warning ** The following Report Variables were requested but not generated -- check.rdd file
   **   ~~~   ** Either the IDF did not contain these elements, the variable name is misspelled,
   **   ~~~   ** or the requested variable is an advanced output which requires Output : Diagnostics, DisplayAdvancedReportVariables;
   ************* Key=*, VarName=FACILITY TOTAL HVAC ELECTRIC DEMAND POWER, Frequency=Hourly
   ************* Key=*, VarName=AFN SURFACE VENTING WINDOW OR DOOR OPENING FACTOR, Frequency=Hourly
   ************* Key=*, VarName=AFN ZONE INFILTRATION AIR CHANGE RATE, Frequency=Hourly
   ************* Key=*, VarName=AFN ZONE INFILTRATION VOLUME, Frequency=Hourly
   ************* Key=*, VarName=AFN ZONE VENTILATION AIR CHANGE RATE, Frequency=Hourly
   ************* Key=*, VarName=AFN ZONE VENTILATION VOLUME, Frequency=Hourly
   ************* There are 2 unused objects in input.
   ************* Use Output:Diagnostics,DisplayUnusedObjects; to see them.
   ************* There are 17 unused schedules in input.
   ************* There are 5 unused week schedules in input.
   ************* There are 7 unused day schedules in input.
   ************* Use Output:Diagnostics,DisplayUnusedSchedules; to see them.
   *************
   ************* ===== Final Error Summary =====
   ************* The following error categories occurred.  Consider correcting or noting.
   ************* Nominally Unused Constructions
   ************* ..The nominally unused constructions warning is provided to alert you to potential conditions that can cause
   ************* ..extra time during simulation. Each construction is calculated by the algorithm indicated in the HeatBalanceAlgorithm
   ************* ..object. You may remove the constructions indicated (when you use the DisplayExtraWarnings option).
   *************
   ************* EnergyPlus Warmup Error Summary. During Warmup: 0 Warning; 0 Severe Errors.
   ************* EnergyPlus Sizing Error Summary. During Sizing: 9 Warning; 4 Severe Errors.
   ************* EnergyPlus Completed Successfully-- 11 Warning; 4 Severe Errors; Elapsed Time=00hr 00min 20.29sec
