  0
SECTION
  2
ENTITIES
999
DXF created from EnergyPlus
999
Program Version,EnergyPlus, Version 9.6.0-f420c06a69, YMD=2022.04.20 13:02
999
Polygon Action,TRIANGULATE3DFACE
999
Color Scheme,Default
999
Text - True North
  0
TEXT
  8
1
  6
Continuous
 62
  3
 10
      -13.75148
 20
        2.05215
 30
        0.10000
 40
 .25
  1
True North
 41
 0.0
  7
MONOTXT
210
0.0
220
0.0
230
1.0
999
Text - Building Title
  0
TEXT
  8
1
  6
Continuous
 62
  3
 10
      -16.75148
 20
       -1.94785
 30
        0.10000
 40
 .4
  1
Building - Building
 41
 0.0
  7
MONOTXT
210
0.0
220
0.0
230
1.0
999
North Arrow Stem
  0
3DFACE
  8
1
 62
  3
 10
      -12.75148
 20
        2.05215
 30
        0.10000
 11
      -12.75148
 21
        2.05215
 31
        0.00000
 12
      -12.75148
 22
       -0.94785
 32
        0.00000
 13
      -12.75148
 23
       -0.94785
 33
        0.10000
999
North Arrow Head 1
  0
3DFACE
  8
1
 62
  3
 10
      -12.75148
 20
        2.05215
 30
        0.10000
 11
      -12.75148
 21
        2.05215
 31
        0.00000
 12
      -13.25148
 22
        1.18612
 32
        0.00000
 13
      -13.25148
 23
        1.18612
 33
        0.10000
999
North Arrow Head 2
  0
3DFACE
  8
1
 62
  3
 10
      -12.75148
 20
        2.05215
 30
        0.10000
 11
      -12.75148
 21
        2.05215
 31
        0.00000
 12
      -12.25148
 22
        1.18612
 32
        0.00000
 13
      -12.25148
 23
        1.18612
 33
        0.10000
999
North Arrow Side 1
  0
3DFACE
  8
1
 62
  3
 10
      -13.25148
 20
        3.55215
 30
        0.10000
 11
      -13.25148
 21
        3.55215
 31
        0.00000
 12
      -13.25148
 22
        2.55215
 32
        0.00000
 13
      -13.25148
 23
        2.55215
 33
        0.10000
999
North Arrow Side 2
  0
3DFACE
  8
1
 62
  3
 10
      -13.25148
 20
        3.55215
 30
        0.10000
 11
      -13.25148
 21
        3.55215
 31
        0.00000
 12
      -12.25148
 22
        2.55215
 32
        0.00000
 13
      -12.25148
 23
        2.55215
 33
        0.10000
999
North Arrow Side 3
  0
3DFACE
  8
1
 62
  3
 10
      -12.25148
 20
        3.55215
 30
        0.10000
 11
      -12.25148
 21
        3.55215
 31
        0.00000
 12
      -12.25148
 22
        2.55215
 32
        0.00000
 13
      -12.25148
 23
        2.55215
 33
        0.10000
999
Zone Names
999
Zone=1:BLOCK1_ZONE2
999
Zone=2:BLOCK1_ZONE1
999
BLOCK1:ZONE2:BLOCK1:ZONE2_PARTITION_2_0_0
  0
3DFACE
  8
BLOCK1_ZONE2
 62
 43
 10
       -1.03895
 20
       -0.94785
 30
        3.50000
 11
       -1.03895
 21
       -0.94785
 31
        0.00000
 12
       -1.03895
 22
        3.69410
 32
        0.00000
 13
       -1.03895
 23
        3.69410
 33
        3.50000
999
BLOCK1:ZONE2:BLOCK1:ZONE2_WALL_3_0_0
  0
3DFACE
  8
BLOCK1_ZONE2
 62
 43
 10
       -1.03895
 20
        3.69410
 30
        3.50000
 11
       -1.03895
 21
        3.69410
 31
        0.00000
 12
       -2.75148
 22
        3.69410
 32
        0.00000
 13
       -2.75148
 23
        3.69410
 33
        3.50000
999
BLOCK1:ZONE2:BLOCK1:ZONE2_WALL_4_0_0
  0
3DFACE
  8
BLOCK1_ZONE2
 62
 43
 10
       -2.75148
 20
        3.69410
 30
        3.50000
 11
       -2.75148
 21
        3.69410
 31
        0.00000
 12
       -2.75148
 22
       -0.94785
 32
        0.00000
 13
       -2.75148
 23
       -0.94785
 33
        3.50000
999
BLOCK1:ZONE2:BLOCK1:ZONE2_WALL_4_0_0_0_0_0_WIN
  0
3DFACE
  8
BLOCK1_ZONE2
 62
143
 10
       -2.75148
 20
        2.84381
 30
        2.92451
 11
       -2.75148
 21
        2.84381
 31
        0.85729
 12
       -2.75148
 22
       -0.17100
 32
        0.85729
 13
       -2.75148
 23
       -0.17100
 33
        2.92451
999
BLOCK1:ZONE2:BLOCK1:ZONE2_WALL_5_0_0
  0
3DFACE
  8
BLOCK1_ZONE2
 62
 43
 10
       -2.75148
 20
       -0.94785
 30
        3.50000
 11
       -2.75148
 21
       -0.94785
 31
        0.00000
 12
       -1.03895
 22
       -0.94785
 32
        0.00000
 13
       -1.03895
 23
       -0.94785
 33
        3.50000
999
BLOCK1:ZONE2:BLOCK1:ZONE2_GROUNDFLOOR_0_0_0
  0
3DFACE
  8
BLOCK1_ZONE2
 62
  8
 10
       -1.03895
 20
        3.69410
 30
        0.00000
 11
       -1.03895
 21
       -0.94785
 31
        0.00000
 12
       -2.75148
 22
       -0.94785
 32
        0.00000
 13
       -2.75148
 23
        3.69410
 33
        0.00000
999
BLOCK1:ZONE2:BLOCK1:ZONE2_ROOF_1_0_0
  0
3DFACE
  8
BLOCK1_ZONE2
 62
 15
 10
       -2.75148
 20
        3.69410
 30
        3.50000
 11
       -2.75148
 21
       -0.94785
 31
        3.50000
 12
       -1.03895
 22
       -0.94785
 32
        3.50000
 13
       -1.03895
 23
        3.69410
 33
        3.50000
999
BLOCK1:ZONE1:BLOCK1:ZONE1_PARTITION_4_0_10000
  0
3DFACE
  8
BLOCK1_ZONE1
 62
 43
 10
       -1.03895
 20
        3.69410
 30
        3.50000
 11
       -1.03895
 21
        3.69410
 31
        0.00000
 12
       -1.03895
 22
       -0.94785
 32
        0.00000
 13
       -1.03895
 23
       -0.94785
 33
        3.50000
999
BLOCK1:ZONE1:BLOCK1:ZONE1_WALL_2_0_0
  0
3DFACE
  8
BLOCK1_ZONE1
 62
 43
 10
        3.60063
 20
       -0.94785
 30
        3.50000
 11
        3.60063
 21
       -0.94785
 31
        0.00000
 12
        3.60063
 22
        3.69410
 32
        0.00000
 13
        3.60063
 23
        3.69410
 33
        3.50000
999
BLOCK1:ZONE1:BLOCK1:ZONE1_WALL_2_0_0_0_0_0_WIN
  0
3DFACE
  8
BLOCK1_ZONE1
 62
143
 10
        3.60063
 20
       -0.00681
 30
        2.26000
 11
        3.60063
 21
       -0.00681
 31
        0.84000
 12
        3.60063
 22
        2.75306
 32
        0.84000
 13
        3.60063
 23
        2.75306
 33
        2.26000
999
BLOCK1:ZONE1:BLOCK1:ZONE1_WALL_3_0_0
  0
3DFACE
  8
BLOCK1_ZONE1
 62
 43
 10
        3.60063
 20
        3.69410
 30
        3.50000
 11
        3.60063
 21
        3.69410
 31
        0.00000
 12
       -1.03895
 22
        3.69410
 32
        0.00000
 13
       -1.03895
 23
        3.69410
 33
        3.50000
999
BLOCK1:ZONE1:BLOCK1:ZONE1_WALL_5_0_0
  0
3DFACE
  8
BLOCK1_ZONE1
 62
 43
 10
       -1.03895
 20
       -0.94785
 30
        3.50000
 11
       -1.03895
 21
       -0.94785
 31
        0.00000
 12
        3.60063
 22
       -0.94785
 32
        0.00000
 13
        3.60063
 23
       -0.94785
 33
        3.50000
999
BLOCK1:ZONE1:BLOCK1:ZONE1_GROUNDFLOOR_0_0_0
  0
3DFACE
  8
BLOCK1_ZONE1
 62
  8
 10
        3.60063
 20
        3.69410
 30
        0.00000
 11
        3.60063
 21
       -0.94785
 31
        0.00000
 12
       -1.03895
 22
       -0.94785
 32
        0.00000
 13
       -1.03895
 23
        3.69410
 33
        0.00000
999
BLOCK1:ZONE1:BLOCK1:ZONE1_ROOF_1_0_0
  0
3DFACE
  8
BLOCK1_ZONE1
 62
 15
 10
       -1.03895
 20
        3.69410
 30
        3.50000
 11
       -1.03895
 21
       -0.94785
 31
        3.50000
 12
        3.60063
 22
       -0.94785
 32
        3.50000
 13
        3.60063
 23
        3.69410
 33
        3.50000
  0
ENDSEC
  0
EOF
