Program Version,EnergyPlus, Version 9.6.0-f420c06a69, YMD=2022.04.20 14:29
! <Version>, Version ID
 Version, 9.6
! <Timesteps per Hour>, #TimeSteps, Minutes per TimeStep {minutes}
 Timesteps per Hour,  2, 30
! <System Convergence Limits>, Minimum System TimeStep {minutes}, Max HVAC Iterations, Minimum Plant Iterations, Maximum Plant Iterations
 System Convergence Limits, 1, 25, 2, 8
! <Simulation Control>, Do Zone Sizing, Do System Sizing, Do Plant Sizing, Do Design Days, Do Weather Simulation, Do HVAC Sizing Simulation
 Simulation Control, Yes, Yes, No, No, Yes, No
! <Performance Precision Tradeoffs>, Use Coil Direct Simulation, Zone Radiant Exchange Algorithm, Override Mode, Number of Timestep In Hour, Force Euler Method, Minimum Number of Warmup Days, Force Suppress All Begin Environment Resets, Minimum System Timestep, MaxZoneTempDiff, MaxAllowedDelTemp
 Performance Precision Tradeoffs, No, ScriptF, Normal, 2, No, 1, No, 1.0, 0.300, 2.0000E-003
! <Output Reporting Tolerances>, Tolerance for Time Heating Setpoint Not Met, Tolerance for Zone Cooling Setpoint Not Met Time
 Output Reporting Tolerances, 1.110, 1.110, 
! <Site:GroundTemperature:BuildingSurface>,Jan{C},Feb{C},Mar{C},Apr{C},May{C},Jun{C},Jul{C},Aug{C},Sep{C},Oct{C},Nov{C},Dec{C}
 Site:GroundTemperature:BuildingSurface,  18.00,  18.00,  18.00,  18.00,  18.00,  18.00,  18.00,  18.00,  18.00,  18.00,  18.00,  18.00
! <Site:GroundTemperature:FCfactorMethod>,Jan{C},Feb{C},Mar{C},Apr{C},May{C},Jun{C},Jul{C},Aug{C},Sep{C},Oct{C},Nov{C},Dec{C}
 Site:GroundTemperature:FCfactorMethod,   6.09,   5.28,   6.71,   8.95,  14.81,  19.34,  22.39,  23.32,  21.74,  18.22,  13.53,   9.18
! <Site:GroundTemperature:Shallow>,Jan{C},Feb{C},Mar{C},Apr{C},May{C},Jun{C},Jul{C},Aug{C},Sep{C},Oct{C},Nov{C},Dec{C}
 Site:GroundTemperature:Shallow,  14.00,  14.00,  14.00,  14.00,  14.00,  14.00,  14.00,  14.00,  14.00,  14.00,  14.00,  14.00
! <Site:GroundTemperature:Deep>,Jan{C},Feb{C},Mar{C},Apr{C},May{C},Jun{C},Jul{C},Aug{C},Sep{C},Oct{C},Nov{C},Dec{C}
 Site:GroundTemperature:Deep,  14.00,  14.00,  14.00,  14.00,  14.00,  14.00,  14.00,  14.00,  14.00,  14.00,  14.00,  14.00
! <Site:GroundReflectance>,Jan{dimensionless},Feb{dimensionless},Mar{dimensionless},Apr{dimensionless},May{dimensionless},Jun{dimensionless},Jul{dimensionless},Aug{dimensionless},Sep{dimensionless},Oct{dimensionless},Nov{dimensionless},Dec{dimensionless}
 Site:GroundReflectance,  0.20,  0.20,  0.20,  0.20,  0.20,  0.20,  0.20,  0.20,  0.20,  0.20,  0.20,  0.20
! <Site:GroundReflectance:SnowModifier>, Normal, Daylighting {dimensionless}
 Site:GroundReflectance:SnowModifier,   2.000,   2.000
! <Site:GroundReflectance:Snow>,Jan{dimensionless},Feb{dimensionless},Mar{dimensionless},Apr{dimensionless},May{dimensionless},Jun{dimensionless},Jul{dimensionless},Aug{dimensionless},Sep{dimensionless},Oct{dimensionless},Nov{dimensionless},Dec{dimensionless}
 Site:GroundReflectance:Snow,  0.40,  0.40,  0.40,  0.40,  0.40,  0.40,  0.40,  0.40,  0.40,  0.40,  0.40,  0.40
! <Site:GroundReflectance:Snow:Daylighting>,Jan{dimensionless},Feb{dimensionless},Mar{dimensionless},Apr{dimensionless},May{dimensionless},Jun{dimensionless},Jul{dimensionless},Aug{dimensionless},Sep{dimensionless},Oct{dimensionless},Nov{dimensionless},Dec{dimensionless}
 Site:GroundReflectance:Snow:Daylighting,  0.40,  0.40,  0.40,  0.40,  0.40,  0.40,  0.40,  0.40,  0.40,  0.40,  0.40,  0.40
! <Environment:Weather Station>,Wind Sensor Height Above Ground {m},Wind Speed Profile Exponent {},Wind Speed Profile Boundary Layer Thickness {m},Air Temperature Sensor Height Above Ground {m},Wind Speed Modifier Coefficient-Internal,Temperature Modifier Coefficient-Internal
Environment:Weather Station,10.000,0.140,270.000,1.500,1.586,9.750E-003
! <Site:Location>, Location Name, Latitude {N+/S- Deg}, Longitude {E+/W- Deg},  Time Zone Number {GMT+/-}, Elevation {m},  Standard Pressure at Elevation {Pa}, Standard RhoAir at Elevation
Site:Location,Asahikawa JA - MN8 WMO#=0,43.77,142.38,9.00,122.00,99868,1.1870
! <Site Water Mains Temperature Information>,Calculation Method{},Water Mains Temperature Schedule Name{},Annual Average Outdoor Air Temperature{C},Maximum Difference In Monthly Average Outdoor Air Temperatures{deltaC},Fixed Default Water Mains Temperature{C}
Site Water Mains Temperature Information,FixedDefault,NA,NA,NA,10.0
! <Building Information>, Building Name,North Axis {deg},Terrain,  Loads Convergence Tolerance Value,Temperature Convergence Tolerance Value,  Solar Distribution,Maximum Number of Warmup Days,Minimum Number of Warmup Days
 Building Information,Building,0.000,Suburbs,4.00000E-002,0.40000,FullExterior,25,6
! <Inside Convection Algorithm>, Algorithm {Simple | TARP | CeilingDiffuser | AdaptiveConvectionAlgorithm}
Inside Convection Algorithm,TARP
! <Outside Convection Algorithm>, Algorithm {SimpleCombined | TARP | MoWitt | DOE-2 | AdaptiveConvectionAlgorithm}
Outside Convection Algorithm,DOE-2
! <Sky Radiance Distribution>, Value {Anisotropic}
Sky Radiance Distribution,Anisotropic
! <Zone Air Solution Algorithm>, Value {ThirdOrderBackwardDifference | AnalyticalSolution | EulerMethod}
 Zone Air Solution Algorithm, ThirdOrderBackwardDifference
! <Zone Air Carbon Dioxide Balance Simulation>, Simulation {Yes/No}, Carbon Dioxide Concentration
 Zone Air Carbon Dioxide Balance Simulation, No,N/A
! <Zone Air Generic Contaminant Balance Simulation>, Simulation {Yes/No}, Generic Contaminant Concentration
 Zone Air Generic Contaminant Balance Simulation, No,N/A
! <Zone Air Mass Flow Balance Simulation>, Enforce Mass Balance, Adjust Zone Mixing and Return {AdjustMixingOnly | AdjustReturnOnly | AdjustMixingThenReturn | AdjustReturnThenMixing | None}, Adjust Zone Infiltration {AddInfiltration | AdjustInfiltration | None}, Infiltration Zones {MixingSourceZonesOnly | AllZones}
 Zone Air Mass Flow Balance Simulation, No,N/A,N/A,N/A
! <HVACSystemRootFindingAlgorithm>, Value {RegulaFalsi | Bisection | BisectionThenRegulaFalsi | RegulaFalsiThenBisection}
 HVACSystemRootFindingAlgorithm, RegulaFalsi
! <Environment:Site Atmospheric Variation>,Wind Speed Profile Exponent {},Wind Speed Profile Boundary Layer Thickness {m},Air Temperature Gradient Coefficient {K/m}
Environment:Site Atmospheric Variation,0.220,370.000,6.500000E-003
! <Surface Geometry>,Starting Corner,Vertex Input Direction,Coordinate System,Daylight Reference Point Coordinate System,Rectangular (Simple) Surface Coordinate System
 Surface Geometry,LowerLeftCorner,Counterclockwise,RelativeCoordinateSystem,RelativeCoordinateSystem,RelativeToZoneOrigin
! <Surface Heat Transfer Algorithm>, Value {CTF - ConductionTransferFunction | EMPD - MoisturePenetrationDepthConductionTransferFunction | CondFD - ConductionFiniteDifference | HAMT - CombinedHeatAndMoistureFiniteElement} - Description,Inside Surface Max Temperature Limit{C}, Surface Convection Coefficient Lower Limit {W/m2-K}, Surface Convection Coefficient Upper Limit {W/m2-K}
Surface Heat Transfer Algorithm, CTF - ConductionTransferFunction,2000,1.00E-008,1000.0
! <Shading Summary>, Number of Fixed Detached Shades, Number of Building Detached Shades, Number of Attached Shades
 Shading Summary,0,0,0
! <Zone Summary>, Number of Zones, Number of Zone Surfaces, Number of SubSurfaces
 Zone Summary,2,14,2
! <Zone Information>,Zone Name,North Axis {deg},Origin X-Coordinate {m},Origin Y-Coordinate {m},Origin Z-Coordinate {m},Centroid X-Coordinate {m},Centroid Y-Coordinate {m},Centroid Z-Coordinate {m},Type,Zone Multiplier,Zone List Multiplier,Minimum X {m},Maximum X {m},Minimum Y {m},Maximum Y {m},Minimum Z {m},Maximum Z {m},Ceiling Height {m},Volume {m3},Zone Inside Convection Algorithm {Simple-Detailed-CeilingDiffuser-TrombeWall},Zone Outside Convection Algorithm {Simple-Detailed-Tarp-MoWitt-DOE-2-BLAST}, Floor Area {m2},Exterior Gross Wall Area {m2},Exterior Net Wall Area {m2},Exterior Window Area {m2}, Number of Surfaces, Number of SubSurfaces, Number of Shading SubSurfaces,  Part of Total Building Area
 Zone Information, BLOCK1:ZONE2,0.0,0.00,0.00,0.00,0.45,9.96,1.75,1,1,1,-9.55,10.45,4.96,14.96,0.00,3.50,3.50,654.55,TARP,DOE-2,187.02,140.00,133.20,6.32,6,1,0,Yes
 Zone Information, BLOCK1:ZONE1,0.0,0.00,0.00,0.00,0.45,-3.65E-002,1.75,1,1,1,-9.55,10.45,-5.04,4.96,0.00,3.50,3.50,654.55,TARP,DOE-2,187.02,140.00,133.20,6.32,6,1,0,Yes
! <Zone Internal Gains Nominal>,Zone Name, Floor Area {m2},# Occupants,Area per Occupant {m2/person},Occupant per Area {person/m2},Interior Lighting {W/m2},Electric Load {W/m2},Gas Load {W/m2},Other Load {W/m2},Hot Water Eq {W/m2},Steam Equipment {W/m2},Sum Loads per Area {W/m2},Outdoor Controlled Baseboard Heat
 Zone Internal Gains Nominal, BLOCK1:ZONE2,187.02,22.2,8.424,0.119,21.389,0.000,0.000,12.587,0.000,0.000,33.976,No
 Zone Internal Gains Nominal, BLOCK1:ZONE1,187.02,22.2,8.424,0.119,21.389,0.000,0.000,12.587,0.000,0.000,33.976,No
! <People Internal Gains Nominal>,Name,Schedule Name,Zone Name,Zone Floor Area {m2},# Zone Occupants,Number of People {},People/Floor Area {person/m2},Floor Area per person {m2/person},Fraction Radiant,Fraction Convected,Sensible Fraction Calculation,Activity level,ASHRAE 55 Warnings,Carbon Dioxide Generation Rate,Nominal Minimum Number of People,Nominal Maximum Number of People,MRT Calculation Type,Work Efficiency, Clothing Insulation Calculation Method,Clothing Insulation Calculation Method Schedule,Clothing,Air Velocity,Fanger Calculation,Pierce Calculation,KSU Calculation,Cooling Effect Calculation,Ankle Draft Calculation
 People Internal Gains Nominal, PEOPLE BLOCK1:ZONE2,OFFICE_OPENOFF_OCC,BLOCK1:ZONE2,187.02,22.2,22.2,0.119,8.424,0.300,0.700,AutoCalculate,ACTIVITY SCHEDULE 75,No,3.8200E-008,0,22,Zone Averaged,WORK EFFICIENCY,Clothing Insulation Schedule,N/A,CLOTHING SCHEDULE 75,AIRVELOCITYSCHEDULE,Yes,No,No,No,No
 People Internal Gains Nominal, PEOPLE BLOCK1:ZONE1,OFFICE_OPENOFF_OCC,BLOCK1:ZONE1,187.02,22.2,22.2,0.119,8.424,0.300,0.700,AutoCalculate,ACTIVITY SCHEDULE 82,No,3.8200E-008,0,22,Zone Averaged,WORK EFFICIENCY,Clothing Insulation Schedule,N/A,CLOTHING SCHEDULE 82,AIRVELOCITYSCHEDULE,Yes,No,No,No,No
! <Lights Internal Gains Nominal>,Name,Schedule Name,Zone Name,Zone Floor Area {m2},# Zone Occupants,Lighting Level {W},Lights/Floor Area {W/m2},Lights per person {W/person},Fraction Return Air,Fraction Radiant,Fraction Short Wave,Fraction Convected,Fraction Replaceable,End-Use Category,Nominal Minimum Lighting Level {W},Nominal Maximum Lighting Level {W}
 Lights Internal Gains Nominal, BLOCK1:ZONE2,OFFICE_OPENOFF_LIGHT,BLOCK1:ZONE2,187.02,22.2,4000.000,21.389,180.180,0.000,0.420,0.180,0.400,1.000,General,0.000,4000.000
 Lights Internal Gains Nominal, BLOCK1:ZONE1,OFFICE_OPENOFF_LIGHT,BLOCK1:ZONE1,187.02,22.2,4000.000,21.389,180.180,0.000,0.420,0.180,0.400,1.000,General,0.000,4000.000
! <OtherEquipment Internal Gains Nominal>,Name,Schedule Name,Zone Name,Zone Floor Area {m2},# Zone Occupants,Equipment Level {W},Equipment/Floor Area {W/m2},Equipment per person {W/person},Fraction Latent,Fraction Radiant,Fraction Lost,Fraction Convected,Nominal Minimum Equipment Level {W},Nominal Maximum Equipment Level {W}
 OtherEquipment Internal Gains Nominal, BLOCK1:ZONE2 EQUIPMENT GAIN 1,OFFICE_OPENOFF_EQUIP,BLOCK1:ZONE2,187.02,22.2,2354.000,12.587,106.036,0.000,0.200,0.000,0.800,0.000,2354.000
 OtherEquipment Internal Gains Nominal, BLOCK1:ZONE1 EQUIPMENT GAIN 1,OFFICE_OPENOFF_EQUIP,BLOCK1:ZONE1,187.02,22.2,2354.000,12.587,106.036,0.000,0.200,0.000,0.800,0.000,2354.000
! <Solar View Factor Check Values>,Zone/Enclosure Name,Original Check Value,Calculated Fixed Check Value,Final Check Value,Number of Iterations,Fixed RowSum Convergence,Used RowSum Convergence
Solar View Factor Check Values,BLOCK1:ZONE2,8.881784E-016,8.088801E-004,8.088801E-004,13,8.088801E-004,8.088801E-004
Solar View Factor Check Values,BLOCK1:ZONE1,8.881784E-016,8.088801E-004,8.088801E-004,13,8.088801E-004,8.088801E-004
! <Construction CTF>,Construction Name,Index,#Layers,#CTFs,Time Step {hours},ThermalConductance {w/m2-K},OuterThermalAbsorptance,InnerThermalAbsorptance,OuterSolarAbsorptance,InnerSolarAbsorptance,Roughness
! <Material CTF Summary>,Material Name,Thickness {m},Conductivity {w/m-K},Density {kg/m3},Specific Heat {J/kg-K},ThermalResistance {m2-K/w}
! <Material:Air>,Material Name,ThermalResistance {m2-K/w}
! <CTF>,Time,Outside,Cross,Inside,Flux (except final one)
 Construction CTF,PROJECT GROUND FLOOR,   3,   4,  10,   0.500,     0.2638    ,   0.900,   0.900,   0.600,   0.780,Rough
 Material CTF Summary,UREA FORMALDEHYDE FOAM_.1327,  0.1327,         0.040,     10.000,     1400.000,   3.318    
 Material CTF Summary,CAST CONCRETE_.1,  0.1000,         1.130,   2000.000,     1000.000,  0.8850E-01
 Material CTF Summary,FLOOR/ROOF SCREED_.O7,  0.0700,         0.410,   1200.000,      840.000,  0.1707    
 Material CTF Summary,TIMBER FLOORING_.O3,  0.0300,         0.140,    650.000,     1200.000,  0.2143    
 CTF,  10,      0.15421745E-13,      0.10761522E-14,      0.22134828E-12,     -0.43731614E-15
 CTF,   9,     -0.59059518E-10,      0.16973960E-11,     -0.81017261E-09,      0.26314180E-12
 CTF,   8,      0.49454778E-07,      0.11332133E-08,      0.76354068E-06,     -0.82187250E-09
 CTF,   7,     -0.87704003E-05,      0.18507333E-06,     -0.15395682E-03,      0.61730404E-06
 CTF,   6,      0.57952067E-03,      0.80407555E-05,      0.93515528E-02,     -0.84998827E-04
 CTF,   5,     -0.15643742E-01,      0.99947070E-04,     -0.22022856    ,      0.37538651E-02
 CTF,   4,      0.16762976    ,      0.36420797E-03,       2.2939011    ,     -0.66756511E-01
 CTF,   3,     -0.76278896    ,      0.36875570E-03,      -10.682027    ,      0.51462052    
 CTF,   2,       1.6334724    ,      0.84437224E-04,       23.333893    ,      -1.6583797    
 CTF,   1,      -1.6294922    ,      0.23004446E-05,      -23.267532    ,       2.2033286    
 CTF,   0,      0.60717981    ,      0.30758452E-09,       8.5337230    
 Construction CTF,PROJECT FLAT ROOF,   5,   4,   5,   0.500,     0.2591    ,   0.900,   0.900,   0.850,   0.500,Rough
 Material CTF Summary,ASPHALT 1_.O1,  0.0100,         0.700,   2100.000,     1000.000,  0.1429E-01
 Material CTF Summary,MW GLASS WOOL (ROLLS)_.1445,  0.1445,         0.040,     12.000,      840.000,   3.612    
 Material CTF Summary,3_RVAL_3,  0.0000,         0.000,      0.000,        0.000,  0.1800    
 Material CTF Summary,PLASTERBOARD_.O13,  0.0130,         0.250,   2800.000,      896.000,  0.5200E-01
 CTF,   5,     -0.31806785E-13,      0.16212270E-14,     -0.57699079E-13,      0.17294246E-15
 CTF,   4,      0.55421369E-06,      0.70213066E-08,      0.14165900E-06,     -0.20596563E-13
 CTF,   3,     -0.42999950E-01,      0.21657410E-03,     -0.10064532E-01,      0.53009086E-07
 CTF,   2,       1.6106511    ,      0.29200957E-01,       1.1041878    ,     -0.37025274E-02
 CTF,   1,      -13.496021    ,      0.15720691    ,      -17.980297    ,      0.13302536    
 CTF,   0,       12.154004    ,      0.39010555E-01,       17.111808    
 Construction CTF,PROJECT WALL,   7,   4,  10,   0.500,     0.3723    ,   0.900,   0.900,   0.700,   0.500,Rough
 Material CTF Summary,BRICKWORK OUTER_.1,  0.1000,         0.840,   1700.000,      800.000,  0.1190    
 Material CTF Summary,XPS EXTRUDED POLYSTYRENE  - CO2 BLOWING_.O795,  0.0795,         0.034,     35.000,     1400.000,   2.338    
 Material CTF Summary,CONCRETE BLOCK (MEDIUM)_.1,  0.1000,         0.510,   1400.000,     1000.000,  0.1961    
 Material CTF Summary,GYPSUM PLASTERING_.O13,  0.0130,         0.400,   1000.000,     1000.000,  0.3250E-01
 CTF,  10,      0.10681795E-10,      0.72471699E-13,      0.63339551E-10,     -0.96123536E-14
 CTF,   9,     -0.13271542E-07,      0.82435744E-10,     -0.55105030E-07,      0.19361605E-10
 CTF,   8,      0.67666986E-05,      0.26453495E-07,      0.16243022E-04,     -0.14910394E-07
 CTF,   7,     -0.10905979E-02,      0.25094159E-05,     -0.18107227E-02,      0.38078925E-05
 CTF,   6,      0.54582117E-01,      0.72997909E-04,      0.67476184E-01,     -0.36171012E-03
 CTF,   5,      -1.0765611    ,      0.67239615E-03,      -1.0512741    ,      0.10594744E-01
 CTF,   4,       9.2516747    ,      0.19627408E-02,       7.9513075    ,     -0.12935618    
 CTF,   3,      -37.807993    ,      0.16958695E-02,      -30.638033    ,      0.73518298    
 CTF,   2,       76.301837    ,      0.35077973E-03,       59.246675    ,      -1.9620035    
 CTF,   1,      -72.114700    ,      0.93559222E-05,      -54.577531    ,       2.3331372    
 CTF,   0,       25.397011    ,      0.20774663E-08,       19.007940    
 Construction CTF,PROJECT PARTITION,   9,   3,   4,   0.500,      2.857    ,   0.900,   0.900,   0.500,   0.500,Rough
 Material CTF Summary,GYPSUM PLASTERBOARD_.O25,  0.0250,         0.250,    900.000,     1000.000,  0.1000    
 Material CTF Summary,7_RVAL_2,  0.0000,         0.000,      0.000,        0.000,  0.1500    
 Material CTF Summary,GYPSUM PLASTERBOARD_.O25,  0.0250,         0.250,    900.000,     1000.000,  0.1000    
 CTF,   4,      0.10128315E-08,      0.39076106E-09,      0.10128315E-08,     -0.30344216E-16
 CTF,   3,     -0.70755172E-02,      0.55337098E-03,     -0.70755172E-02,      0.99645439E-09
 CTF,   2,      0.79180793    ,      0.20370406    ,      0.79180793    ,     -0.41031005E-02
 CTF,   1,      -9.9538120    ,       1.5982646    ,      -9.9538120    ,      0.17220266    
 CTF,   0,       11.545938    ,      0.57433634    ,       11.545938    
 Construction CTF,PROJECT PARTITION_REV,  10,   3,   4,   0.500,      2.857    ,   0.900,   0.900,   0.500,   0.500,Rough
 Material CTF Summary,GYPSUM PLASTERBOARD_.O25,  0.0250,         0.250,    900.000,     1000.000,  0.1000    
 Material CTF Summary,8_RVAL_2,  0.0000,         0.000,      0.000,        0.000,  0.1500    
 Material CTF Summary,GYPSUM PLASTERBOARD_.O25,  0.0250,         0.250,    900.000,     1000.000,  0.1000    
 CTF,   4,      0.10128315E-08,      0.39076106E-09,      0.10128315E-08,     -0.30344216E-16
 CTF,   3,     -0.70755172E-02,      0.55337098E-03,     -0.70755172E-02,      0.99645439E-09
 CTF,   2,      0.79180793    ,      0.20370406    ,      0.79180793    ,     -0.41031005E-02
 CTF,   1,      -9.9538120    ,       1.5982646    ,      -9.9538120    ,      0.17220266    
 CTF,   0,       11.545938    ,      0.57433634    ,       11.545938    
! <WindowConstruction>,Construction Name,Index,#Layers,Roughness,Conductance {W/m2-K},SHGC,Solar Transmittance at Normal Incidence,Visible Transmittance at Normal Incidence
! <WindowMaterial:Glazing>, Material Name, Optical Data Type, Spectral Data Set Name, Thickness {m}, Solar Transmittance,Front Solar Reflectance, Back Solar Reflectance, Visible Transmittance, Front Visible Reflectance,Back Visible Reflectance,Infrared Transmittance, Front Thermal Emissivity, Back Thermal Emissivity,Conductivity {W/m-K},Dirt Factor,Solar Diffusing
! <WindowMaterial:Gas>,Material Name,GasType,Thickness {m}
 WindowConstruction,1001,11,3,VerySmooth,1.960,0.691,0.624,0.744
 WindowMaterial:Glazing,38,SpectralAverage,,3.00000E-003,0.74000,9.00000E-002,0.10000,0.82000,0.11000,0.12000,0.00000,0.84000,0.20000,0.90000,1.00000,No
 WindowMaterial:Gas,1002,Air,1.300E-002
 WindowMaterial:Glazing,2,SpectralAverage,,3.00000E-003,0.83700,7.50000E-002,7.50000E-002,0.89800,8.10000E-002,8.10000E-002,0.00000,0.84000,0.84000,0.90000,1.00000,No
! <Shadowing/Sun Position Calculations Annual Simulations>, Shading Calculation Method, Shading Calculation Update Frequency Method, Shading Calculation Update Frequency {days}, Maximum Figures in Shadow Overlap Calculations {}, Polygon Clipping Algorithm, Pixel Counting Resolution, Sky Diffuse Modeling Algorithm, Output External Shading Calculation Results, Disable Self-Shading Within Shading Zone Groups, Disable Self-Shading From Shading Zone Groups to Other Zones
Shadowing/Sun Position Calculations Annual Simulations,PolygonClipping,Periodic,20,15000,SutherlandHodgman,512,SimpleSkyDiffuseModeling,No,No,No
! <Surface View Factor Check Values>,Zone/Enclosure Name,Original Check Value,Calculated Fixed Check Value,Final Check Value,Number of Iterations,Fixed RowSum Convergence,Used RowSum Convergence
Surface View Factor Check Values,BLOCK1:ZONE2,8.881784E-016,8.088801E-004,8.088801E-004,13,8.088801E-004,8.088801E-004
Surface View Factor Check Values,BLOCK1:ZONE1,8.881784E-016,8.088801E-004,8.088801E-004,13,8.088801E-004,8.088801E-004
! <Surface Convection Parameters>, Surface Name, Outside Model Assignment, Outside Area [m2], Outside Perimeter [m], Outside Height [m], Inside Model Assignment, Inside Height [m], Inside Perimeter Envelope [m], Inside Hydraulic Diameter [m], Window Wall Ratio, Window Location, Near Radiant {Yes/No}, Has Active HVAC {Yes/No}
Surface Convection Parameters,BLOCK1:ZONE2_WALL_2_0_0,0,70.00,52.13,3.50,0,3.50,40.00,12.47,4.51E-002,3,No,No
Surface Convection Parameters,BLOCK1:ZONE2_WALL_3_0_0,0,70.00,56.96,3.50,0,3.50,40.00,12.47,4.51E-002,4,No,No
Surface Convection Parameters,BLOCK1:ZONE2_WALL_3_0_0_0_0_0_WIN,0,69.41,56.96,3.50,0,3.50,40.00,12.47,4.51E-002,1,No,No
Surface Convection Parameters,BLOCK1:ZONE2_WALL_4_0_0,0,70.00,51.33,3.50,0,3.50,40.00,12.47,4.51E-002,3,No,No
Surface Convection Parameters,BLOCK1:ZONE2_PARTITION_5_0_0,0,0.00,0.00,0.00,0,3.50,40.00,12.47,4.51E-002,0,No,No
Surface Convection Parameters,BLOCK1:ZONE2_GROUNDFLOOR_0_0_0,0,0.00,0.00,0.00,0,3.50,40.00,12.47,4.51E-002,0,No,No
Surface Convection Parameters,BLOCK1:ZONE2_ROOF_1_0_0,0,400.00,80.00,0.00,0,3.50,40.00,12.47,4.51E-002,0,No,No
Surface Convection Parameters,BLOCK1:ZONE1_PARTITION_3_0_10000,0,0.00,0.00,0.00,0,3.50,40.00,12.47,4.51E-002,0,No,No
Surface Convection Parameters,BLOCK1:ZONE1_WALL_2_0_0,0,70.00,52.13,3.50,0,3.50,40.00,12.47,4.51E-002,3,No,No
Surface Convection Parameters,BLOCK1:ZONE1_WALL_4_0_0,0,70.00,51.33,3.50,0,3.50,40.00,12.47,4.51E-002,3,No,No
Surface Convection Parameters,BLOCK1:ZONE1_WALL_5_0_0,0,70.00,48.25,3.50,0,3.50,40.00,12.47,4.51E-002,4,No,No
Surface Convection Parameters,BLOCK1:ZONE1_WALL_5_0_0_0_0_0_WIN,0,69.41,48.25,3.50,0,3.50,40.00,12.47,4.51E-002,1,No,No
Surface Convection Parameters,BLOCK1:ZONE1_GROUNDFLOOR_0_0_0,0,0.00,0.00,0.00,0,3.50,40.00,12.47,4.51E-002,0,No,No
Surface Convection Parameters,BLOCK1:ZONE1_ROOF_1_0_0,0,400.00,80.00,0.00,0,3.50,40.00,12.47,4.51E-002,0,No,No
! <Building Convection Parameters:North Facade>, Perimeter, Height, Xmin, Xmax, Ymin, Ymax, Zmin, Zmax 
Building Convection Parameters:North Facade, 56.96,3.50,-9.55,10.45,0.00,14.96,0.00,3.50
! <Building Convection Parameters:Northeast Facade>, Perimeter, Height, Xmin, Xmax, Ymin, Ymax, Zmin, Zmax 
Building Convection Parameters:Northeast Facade, 0.00,0.00,0.00,0.00,0.00,0.00,0.00,0.00
! <Building Convection Parameters:East Facade>, Perimeter, Height, Xmin, Xmax, Ymin, Ymax, Zmin, Zmax 
Building Convection Parameters:East Facade, 52.13,3.50,0.00,10.45,-5.04,14.96,0.00,3.50
! <Building Convection Parameters:Southeast Facade>, Perimeter, Height, Xmin, Xmax, Ymin, Ymax, Zmin, Zmax 
Building Convection Parameters:Southeast Facade, 0.00,0.00,0.00,0.00,0.00,0.00,0.00,0.00
! <Building Convection Parameters:South Facade>, Perimeter, Height, Xmin, Xmax, Ymin, Ymax, Zmin, Zmax 
Building Convection Parameters:South Facade, 48.25,3.50,-9.55,10.45,-5.04,0.00,0.00,3.50
! <Building Convection Parameters:Southwest Facade>, Perimeter, Height, Xmin, Xmax, Ymin, Ymax, Zmin, Zmax 
Building Convection Parameters:Southwest Facade, 0.00,0.00,0.00,0.00,0.00,0.00,0.00,0.00
! <Building Convection Parameters:West Facade>, Perimeter, Height, Xmin, Xmax, Ymin, Ymax, Zmin, Zmax 
Building Convection Parameters:West Facade, 51.33,3.50,-9.55,0.00,-5.04,14.96,0.00,3.50
! <Building Convection Parameters:Northwest Facade>, Perimeter, Height, Xmin, Xmax, Ymin, Ymax, Zmin, Zmax 
Building Convection Parameters:NorthwWest Facade, 0.00,0.00,0.00,0.00,0.00,0.00,0.00,0.00
! <Building Convection Parameters:Roof>, Area [m2], Perimeter [m], Height [m], XdYdZd:X, XdYdZd:Y, XdYdZd:Z,XdYdZu:X, XdYdZu:Y, XdYdZu:Z,XdYuZd:X, XdYuZd:Y, XdYuZd:Z,XdYuZu:X, XdYuZu:Y, XdYuZu:Z,XuYdZd:X, XuYdZd:Y, XuYdZd:Z,XuYuZd:X, XuYuZd:Y, XuYuZd:Z,XuYdZu:X, XuYdZu:Y, XuYdZu:Z,XuYuZu:X, XuYuZu:Y, XuYuZu:Z
Building Convection Parameters:Roof,400.00,80.00,0.00,-9.549,-5.037,3.500,-9.549,-5.037,3.500,-9.549,14.963,3.500,-9.549,14.963,3.500,10.451,-5.037,3.500,10.451,14.963,3.500,10.451,-5.037,3.500,10.451,14.963,3.500
! <RoomAir Model>, Zone Name, Mixing/Mundt/UCSDDV/UCSDCV/UCSDUFI/UCSDUFE/User Defined
RoomAir Model,BLOCK1:ZONE2,Mixing/Well-Stirred
RoomAir Model,BLOCK1:ZONE1,Mixing/Well-Stirred
! <AirflowNetwork Model:Control>, No Multizone or Distribution/Multizone with Distribution/Multizone without Distribution/Multizone with Distribution only during Fan Operation
AirflowNetwork Model:Control,MultizoneWithoutDistribution
! <AirflowNetwork Model:Wind Direction>, Wind Direction #1 to n (degree)
AirflowNetwork Model:Wind Direction, 0.0,30.0,60.0,90.0,120.0,150.0,180.0,210.0,240.0,270.0,300.0,330.0
! <AirflowNetwork Model:Wind Pressure Coefficients>, Name, Wind Pressure Coefficients #1 to n (dimensionless)
AirflowNetwork Model:Wind Pressure Coefficients, BLOCK1:ZONE2_ROOF_1_0_0, -0.60,-0.53,-0.47,-0.40,-0.47,-0.53,-0.60,-0.53,-0.47,-0.40,-0.47,-0.53
AirflowNetwork Model:Wind Pressure Coefficients, BLOCK1:ZONE2_WALL_2_0_0, -0.30,-3.33E-002,0.20,0.40,0.20,-3.33E-002,-0.30,-0.33,-0.30,-0.20,-0.30,-0.33
AirflowNetwork Model:Wind Pressure Coefficients, BLOCK1:ZONE2_WALL_3_0_0, 0.40,0.20,-3.33E-002,-0.30,-0.33,-0.30,-0.20,-0.30,-0.33,-0.30,-3.33E-002,0.20
AirflowNetwork Model:Wind Pressure Coefficients, BLOCK1:ZONE2_WALL_3_0_0_0_0_0_WIN, 0.40,0.20,-3.33E-002,-0.30,-0.33,-0.30,-0.20,-0.30,-0.33,-0.30,-3.33E-002,0.20
AirflowNetwork Model:Wind Pressure Coefficients, BLOCK1:ZONE2_WALL_4_0_0, -0.30,-0.33,-0.30,-0.20,-0.30,-0.33,-0.30,-3.33E-002,0.20,0.40,0.20,-3.33E-002
AirflowNetwork Model:Wind Pressure Coefficients, BLOCK1:ZONE1_ROOF_1_0_0, -0.60,-0.53,-0.47,-0.40,-0.47,-0.53,-0.60,-0.53,-0.47,-0.40,-0.47,-0.53
AirflowNetwork Model:Wind Pressure Coefficients, BLOCK1:ZONE1_WALL_2_0_0, -0.30,-3.33E-002,0.20,0.40,0.20,-3.33E-002,-0.30,-0.33,-0.30,-0.20,-0.30,-0.33
AirflowNetwork Model:Wind Pressure Coefficients, BLOCK1:ZONE1_WALL_4_0_0, -0.30,-0.33,-0.30,-0.20,-0.30,-0.33,-0.30,-3.33E-002,0.20,0.40,0.20,-3.33E-002
AirflowNetwork Model:Wind Pressure Coefficients, BLOCK1:ZONE1_WALL_5_0_0, -0.20,-0.30,-0.33,-0.30,-3.33E-002,0.20,0.40,0.20,-3.33E-002,-0.30,-0.33,-0.30
AirflowNetwork Model:Wind Pressure Coefficients, BLOCK1:ZONE1_WALL_5_0_0_0_0_0_WIN, -0.20,-0.30,-0.33,-0.30,-3.33E-002,0.20,0.40,0.20,-3.33E-002,-0.30,-0.33,-0.30
! <Zone Volume Capacitance Multiplier>, Sensible Heat Capacity Multiplier, Moisture Capacity Multiplier, Carbon Dioxide Capacity Multiplier, Generic Contaminant Capacity Multiplier
Zone Volume Capacitance Multiplier,   1.000 ,   1.000,   1.000,   1.000
! <Zone Sizing DOAS Inputs>, Zone Name, DOAS Design Control Strategy, DOAS Design Low Setpoint Temperature {C}, DOAS Design High Setpoint Temperature {C} 
 Zone Sizing DOAS Inputs, BLOCK1:ZONE2, NeutralSupplyAir, 21.100, 23.900
 Zone Sizing DOAS Inputs, BLOCK1:ZONE1, NeutralSupplyAir, 21.100, 23.900
! <Load Timesteps in Zone Design Calculation Averaging Window>, Value
 Load Timesteps in Zone Design Calculation Averaging Window,    2
! <Heating Sizing Factor Information>, Sizing Factor ID, Value
 Heating Sizing Factor Information, Global,   1.2500    
 Heating Sizing Factor Information, Zone BLOCK1:ZONE2,   1.2500    
 Heating Sizing Factor Information, Zone BLOCK1:ZONE1,   1.2500    
! <Cooling Sizing Factor Information>, Sizing Factor ID, Value
 Cooling Sizing Factor Information, Global,   1.1500    
 Cooling Sizing Factor Information, Zone BLOCK1:ZONE2,   1.1500    
 Cooling Sizing Factor Information, Zone BLOCK1:ZONE1,   1.1500    
! <Zone Sizing Information>, Zone Name, Load Type, Calc Des Load {W}, User Des Load {W}, Calc Des Air Flow Rate {m3/s}, User Des Air Flow Rate {m3/s}, Design Day Name, Date/Time of Peak, Temperature at Peak {C}, Humidity Ratio at Peak {kgWater/kgDryAir}, Floor Area {m2}, # Occupants, Calc Outdoor Air Flow Rate {m3/s}, Calc DOAS Heat Addition Rate {W}
 Zone Sizing Information, BLOCK1:ZONE2, Cooling, 9598.89432, 11038.72847, 15.83199, 18.20679, SUMMER DESIGN DAY IN UNTITLED (O1-O1:31-12) JUL, 7/15 15:00:00, 38.20000, 8.71384E-003, 187.01500, 22.20000, 0.20957, -280.40759
 Zone Sizing Information, BLOCK1:ZONE2, Heating, 5845.44755, 7306.80943, 9.72975, 12.16218, WINTER DESIGN DAY IN UNTITLED (O1-O1:31-12), 1/15 24:00:00, -4.00000, 2.89197E-003, 187.01500, 22.20000, 0.20957, -443.42441
 Zone Sizing Information, BLOCK1:ZONE1, Cooling, 10387.60741, 11945.74852, 17.13286, 19.70279, SUMMER DESIGN DAY IN UNTITLED (O1-O1:31-12) AUG, 8/15 14:00:00, 38.00000, 8.23741E-003, 187.01500, 22.20000, 0.20957, -246.39559
 Zone Sizing Information, BLOCK1:ZONE1, Heating, 5034.74138, 6293.42673, 8.38033, 10.47541, WINTER DESIGN DAY IN UNTITLED (O1-O1:31-12), 1/15 24:00:00, -4.00000, 2.89197E-003, 187.01500, 22.20000, 0.20957, -443.31905
! <Component Sizing Information>, Component Type, Component Name, Input Field Description, Value
 Component Sizing Information, ZoneHVAC:TerminalUnit:VariableRefrigerantFlow, BLOCK1:ZONE2 VRF INDOOR UNIT, Design Size Cooling Supply Air Flow Rate [m3/s], 18.20679
 Component Sizing Information, ZoneHVAC:TerminalUnit:VariableRefrigerantFlow, BLOCK1:ZONE2 VRF INDOOR UNIT, Design Size Heating Supply Air Flow Rate [m3/s], 18.20679
 Component Sizing Information, ZoneHVAC:TerminalUnit:VariableRefrigerantFlow, BLOCK1:ZONE2 VRF INDOOR UNIT, Design Size No Cooling Supply Air Flow Rate [m3/s], 18.20679
 Component Sizing Information, ZoneHVAC:TerminalUnit:VariableRefrigerantFlow, BLOCK1:ZONE2 VRF INDOOR UNIT, Design Size No Heating Supply Air Flow Rate [m3/s], 18.20679
 Component Sizing Information, Coil:Cooling:DX:VariableRefrigerantFlow, BLOCK1:ZONE2 VRF INDOOR UNIT DX COOLING COIL, Design Size Rated Air Flow Rate [m3/s], 18.20679
 Component Sizing Information, Coil:Cooling:DX:VariableRefrigerantFlow, BLOCK1:ZONE2 VRF INDOOR UNIT DX COOLING COIL, Design Size Gross Rated Total Cooling Capacity [W], 301386.98872
 Component Sizing Information, Coil:Cooling:DX:VariableRefrigerantFlow, BLOCK1:ZONE2 VRF INDOOR UNIT DX COOLING COIL, Design Size Gross Rated Sensible Heat Ratio, 0.80066
 Component Sizing Information, Coil:Heating:DX:VariableRefrigerantFlow, BLOCK1:ZONE2 VRF INDOOR UNIT DX HEATING COIL, Design Size Rated Air Flow Rate [m3/s], 18.20679
 Component Sizing Information, Coil:Heating:DX:VariableRefrigerantFlow, BLOCK1:ZONE2 VRF INDOOR UNIT DX HEATING COIL, Design Size Gross Rated Heating Capacity [W], 301386.98872
 Component Sizing Information, Fan:ConstantVolume, BLOCK1:ZONE2 VRF INDOOR UNIT SUPPLY FAN, Design Size Maximum Flow Rate [m3/s], 18.20679
 Component Sizing Information, AirConditioner:VariableRefrigerantFlow, VRF OUTDOOR UNIT_BLOCK1:ZONE2, Design Size Rated Total Cooling Capacity (gross) [W], 301386.98872
 Component Sizing Information, AirConditioner:VariableRefrigerantFlow, VRF OUTDOOR UNIT_BLOCK1:ZONE2, Design Size Rated Total Heating Capacity [W], 301386.98872
 Component Sizing Information, AirConditioner:VariableRefrigerantFlow, VRF OUTDOOR UNIT_BLOCK1:ZONE2, Design Size Resistive Defrost Heater Capacity, 301386.98872
 Component Sizing Information, AirConditioner:VariableRefrigerantFlow, VRF OUTDOOR UNIT_BLOCK1:ZONE2, Design Size Evaporative Condenser Air Flow Rate [m3/s], 34.35812
 Component Sizing Information, AirConditioner:VariableRefrigerantFlow, VRF OUTDOOR UNIT_BLOCK1:ZONE2, Design Size Evaporative Condenser Pump Rated Power Consumption [W], 1285.71689
! <VRF System Information>, VRF System Type, VRF System Name, VRF System Cooling Combination Ratio, VRF System Heating Combination Ratio, VRF System Cooling Piping Correction Factor, VRF System Heating Piping Correction Factor
 VRF System Information, AirConditioner:VariableRefrigerantFlow, VRF OUTDOOR UNIT_BLOCK1:ZONE2, 1.00000, 1.00000, 0.91519, 0.99797
 Component Sizing Information, ZoneHVAC:TerminalUnit:VariableRefrigerantFlow, BLOCK1:ZONE1 VRF INDOOR UNIT, Design Size Cooling Supply Air Flow Rate [m3/s], 19.70279
 Component Sizing Information, ZoneHVAC:TerminalUnit:VariableRefrigerantFlow, BLOCK1:ZONE1 VRF INDOOR UNIT, Design Size Heating Supply Air Flow Rate [m3/s], 19.70279
 Component Sizing Information, ZoneHVAC:TerminalUnit:VariableRefrigerantFlow, BLOCK1:ZONE1 VRF INDOOR UNIT, Design Size No Cooling Supply Air Flow Rate [m3/s], 19.70279
 Component Sizing Information, ZoneHVAC:TerminalUnit:VariableRefrigerantFlow, BLOCK1:ZONE1 VRF INDOOR UNIT, Design Size No Heating Supply Air Flow Rate [m3/s], 19.70279
 Component Sizing Information, Coil:Cooling:DX:VariableRefrigerantFlow, BLOCK1:ZONE1 VRF INDOOR UNIT DX COOLING COIL, Design Size Rated Air Flow Rate [m3/s], 19.70279
 Component Sizing Information, Coil:Cooling:DX:VariableRefrigerantFlow, BLOCK1:ZONE1 VRF INDOOR UNIT DX COOLING COIL, Design Size Gross Rated Total Cooling Capacity [W], 326151.07651
 Component Sizing Information, Coil:Cooling:DX:VariableRefrigerantFlow, BLOCK1:ZONE1 VRF INDOOR UNIT DX COOLING COIL, Design Size Gross Rated Sensible Heat Ratio, 0.80066
 Component Sizing Information, Coil:Heating:DX:VariableRefrigerantFlow, BLOCK1:ZONE1 VRF INDOOR UNIT DX HEATING COIL, Design Size Rated Air Flow Rate [m3/s], 19.70279
 Component Sizing Information, Coil:Heating:DX:VariableRefrigerantFlow, BLOCK1:ZONE1 VRF INDOOR UNIT DX HEATING COIL, Design Size Gross Rated Heating Capacity [W], 326151.07651
 Component Sizing Information, Fan:ConstantVolume, BLOCK1:ZONE1 VRF INDOOR UNIT SUPPLY FAN, Design Size Maximum Flow Rate [m3/s], 19.70279
 Component Sizing Information, AirConditioner:VariableRefrigerantFlow, VRF OUTDOOR UNIT_BLOCK1:ZONE1, Design Size Rated Total Cooling Capacity (gross) [W], 326151.07651
 Component Sizing Information, AirConditioner:VariableRefrigerantFlow, VRF OUTDOOR UNIT_BLOCK1:ZONE1, Design Size Rated Total Heating Capacity [W], 326151.07651
 Component Sizing Information, AirConditioner:VariableRefrigerantFlow, VRF OUTDOOR UNIT_BLOCK1:ZONE1, Design Size Resistive Defrost Heater Capacity, 326151.07651
 Component Sizing Information, AirConditioner:VariableRefrigerantFlow, VRF OUTDOOR UNIT_BLOCK1:ZONE1, Design Size Evaporative Condenser Air Flow Rate [m3/s], 37.18122
 Component Sizing Information, AirConditioner:VariableRefrigerantFlow, VRF OUTDOOR UNIT_BLOCK1:ZONE1, Design Size Evaporative Condenser Pump Rated Power Consumption [W], 1391.36049
 VRF System Information, AirConditioner:VariableRefrigerantFlow, VRF OUTDOOR UNIT_BLOCK1:ZONE1, 1.00000, 1.00000, 0.91519, 0.99797
! <Zone Surfaces>,Zone Name,# Surfaces
! <Shading Surfaces>,Number of Shading Surfaces,# Surfaces
! <HeatTransfer Surface>,Surface Name,Surface Class,Base Surface,Heat Transfer Algorithm,Construction,Nominal U (w/o film coefs) {W/m2-K},Nominal U (with film coefs) {W/m2-K},Solar Diffusing,Area (Net) {m2},Area (Gross) {m2},Area (Sunlit Calc) {m2},Azimuth {deg},Tilt {deg},~Width {m},~Height {m},Reveal {m},ExtBoundCondition,ExtConvCoeffCalc,IntConvCoeffCalc,SunExposure,WindExposure,ViewFactorToGround,ViewFactorToSky,ViewFactorToGround-IR,ViewFactorToSky-IR,#Sides
! <Shading Surface>,Surface Name,Surface Class,Base Surface,Heat Transfer Algorithm,Transmittance Schedule,Min Schedule Value,Max Schedule Value,Solar Diffusing,Area (Net) {m2},Area (Gross) {m2},Area (Sunlit Calc) {m2},Azimuth {deg},Tilt {deg},~Width {m},~Height {m},Reveal {m},ExtBoundCondition,ExtConvCoeffCalc,IntConvCoeffCalc,SunExposure,WindExposure,ViewFactorToGround,ViewFactorToSky,ViewFactorToGround-IR,ViewFactorToSky-IR,#Sides
! <Frame/Divider Surface>,Surface Name,Surface Class,Base Surface,Heat Transfer Algorithm,Construction,Nominal U (w/o film coefs) {W/m2-K},Nominal U (with film coefs) {W/m2-K},Solar Diffusing,Area (Net) {m2},Area (Gross) {m2},Area (Sunlit Calc) {m2},Azimuth {deg},Tilt {deg},~Width {m},~Height {m},Reveal {m}
Zone Surfaces,BLOCK1:ZONE2,7
HeatTransfer Surface,BLOCK1:ZONE2_WALL_2_0_0,Wall,,CTF - ConductionTransferFunction,PROJECT WALL,0.372,0.353,,35.00,35.00,35.00,90.00,90.00,10.00,3.50,0.00,ExternalEnvironment,DOE-2,ASHRAETARP,SunExposed,WindExposed,0.50,0.50,0.50,0.50,4
HeatTransfer Surface,BLOCK1:ZONE2_WALL_3_0_0,Wall,,CTF - ConductionTransferFunction,PROJECT WALL,0.372,0.353,,63.20,70.00,63.68,0.00,90.00,20.00,3.50,0.00,ExternalEnvironment,DOE-2,ASHRAETARP,SunExposed,WindExposed,0.50,0.50,0.50,0.50,4
HeatTransfer Surface,BLOCK1:ZONE2_WALL_3_0_0_0_0_0_WIN,Window,BLOCK1:ZONE2_WALL_3_0_0,Window5 Detailed Fenestration,1001,N/A,1.960,No,6.20,6.32,6.32,0.00,90.00,4.45,1.42,0.00,ExternalEnvironment,DOE-2,ASHRAETARP,SunExposed,WindExposed,0.50,0.50,0.50,0.50,4
Frame/Divider Surface,1,Frame,BLOCK1:ZONE2_WALL_3_0_0_0_0_0_WIN,Window5 Detailed Fenestration,,N/A,N/A,,0.48,0.48,*,N/A,N/A,4.00E-002,N/A
Frame/Divider Surface,1,Divider:DividedLite,BLOCK1:ZONE2_WALL_3_0_0_0_0_0_WIN,,,N/A,N/A,,0.12,0.12,*,N/A,N/A,2.00E-002,N/A
HeatTransfer Surface,BLOCK1:ZONE2_WALL_4_0_0,Wall,,CTF - ConductionTransferFunction,PROJECT WALL,0.372,0.353,,35.00,35.00,35.00,270.00,90.00,10.00,3.50,0.00,ExternalEnvironment,DOE-2,ASHRAETARP,SunExposed,WindExposed,0.50,0.50,0.50,0.50,4
HeatTransfer Surface,BLOCK1:ZONE2_PARTITION_5_0_0,Wall,,CTF - ConductionTransferFunction,PROJECT PARTITION,2.857,2.001,,70.00,70.00,70.00,180.00,90.00,20.00,3.50,0.00,BLOCK1:ZONE1_PARTITION_3_0_10000,Other/Same Surface Int Conv,ASHRAETARP,NoSun,NoWind,0.00,0.50,0.50,0.50,4
HeatTransfer Surface,BLOCK1:ZONE2_GROUNDFLOOR_0_0_0,Floor,,CTF - ConductionTransferFunction,PROJECT GROUND FLOOR,0.264,0.248,,200.00,200.00,200.00,0.00,180.00,20.00,10.00,0.00,Ground,N/A-Ground,ASHRAETARP,NoSun,NoWind,1.00,0.00,1.00,0.00,4
HeatTransfer Surface,BLOCK1:ZONE2_ROOF_1_0_0,Roof,,CTF - ConductionTransferFunction,PROJECT FLAT ROOF,0.259,0.247,,200.00,200.00,200.00,180.00,0.00,20.00,10.00,0.00,ExternalEnvironment,DOE-2,ASHRAETARP,SunExposed,WindExposed,0.00,1.00,0.00,1.00,4
Zone Surfaces,BLOCK1:ZONE1,7
HeatTransfer Surface,BLOCK1:ZONE1_PARTITION_3_0_10000,Wall,,CTF - ConductionTransferFunction,PROJECT PARTITION_REV,2.857,2.001,,70.00,70.00,70.00,0.00,90.00,20.00,3.50,0.00,BLOCK1:ZONE2_PARTITION_5_0_0,Other/Same Surface Int Conv,ASHRAETARP,NoSun,NoWind,0.00,0.50,0.50,0.50,4
HeatTransfer Surface,BLOCK1:ZONE1_WALL_2_0_0,Wall,,CTF - ConductionTransferFunction,PROJECT WALL,0.372,0.353,,35.00,35.00,35.00,90.00,90.00,10.00,3.50,0.00,ExternalEnvironment,DOE-2,ASHRAETARP,SunExposed,WindExposed,0.50,0.50,0.50,0.50,4
HeatTransfer Surface,BLOCK1:ZONE1_WALL_4_0_0,Wall,,CTF - ConductionTransferFunction,PROJECT WALL,0.372,0.353,,35.00,35.00,35.00,270.00,90.00,10.00,3.50,0.00,ExternalEnvironment,DOE-2,ASHRAETARP,SunExposed,WindExposed,0.50,0.50,0.50,0.50,4
HeatTransfer Surface,BLOCK1:ZONE1_WALL_5_0_0,Wall,,CTF - ConductionTransferFunction,PROJECT WALL,0.372,0.353,,63.20,70.00,63.68,180.00,90.00,20.00,3.50,0.00,ExternalEnvironment,DOE-2,ASHRAETARP,SunExposed,WindExposed,0.50,0.50,0.50,0.50,4
HeatTransfer Surface,BLOCK1:ZONE1_WALL_5_0_0_0_0_0_WIN,Window,BLOCK1:ZONE1_WALL_5_0_0,Window5 Detailed Fenestration,1001,N/A,1.960,No,6.20,6.32,6.32,180.00,90.00,4.45,1.42,0.00,ExternalEnvironment,DOE-2,ASHRAETARP,SunExposed,WindExposed,0.50,0.50,0.50,0.50,4
Frame/Divider Surface,1,Frame,BLOCK1:ZONE1_WALL_5_0_0_0_0_0_WIN,Window5 Detailed Fenestration,,N/A,N/A,,0.48,0.48,*,N/A,N/A,4.00E-002,N/A
Frame/Divider Surface,1,Divider:DividedLite,BLOCK1:ZONE1_WALL_5_0_0_0_0_0_WIN,,,N/A,N/A,,0.12,0.12,*,N/A,N/A,2.00E-002,N/A
HeatTransfer Surface,BLOCK1:ZONE1_GROUNDFLOOR_0_0_0,Floor,,CTF - ConductionTransferFunction,PROJECT GROUND FLOOR,0.264,0.248,,200.00,200.00,200.00,0.00,180.00,20.00,10.00,0.00,Ground,N/A-Ground,ASHRAETARP,NoSun,NoWind,1.00,0.00,1.00,0.00,4
HeatTransfer Surface,BLOCK1:ZONE1_ROOF_1_0_0,Roof,,CTF - ConductionTransferFunction,PROJECT FLAT ROOF,0.259,0.247,,200.00,200.00,200.00,180.00,0.00,20.00,10.00,0.00,ExternalEnvironment,DOE-2,ASHRAETARP,SunExposed,WindExposed,0.00,1.00,0.00,1.00,4
! <Environment>,Environment Name,Environment Type, Start Date, End Date, Start DayOfWeek, Duration {#days}, Source:Start DayOfWeek,  Use Daylight Saving, Use Holidays, Apply Weekend Holiday Rule,  Use Rain Values, Use Snow Values, Sky Temperature Model
! <Environment:Special Days>, Special Day Name, Special Day Type, Source, Start Date, Duration {#days}
! <Environment:Daylight Saving>, Daylight Saving Indicator, Source, Start Date, End Date
! <Environment:WarmupDays>, NumberofWarmupDays
Environment,UNTITLED (O1-O1:31-12),WeatherFileRunPeriod,01/01/2017,12/31/2017,Sunday,365,Use RunPeriod Specified Day,No,No,Yes,Yes,Yes,Clark and Allen
Environment:Daylight Saving,Yes,InputFile,03/26,10/29
Environment:WarmupDays,  6
! <Warmup Convergence Information>,Zone Name,Environment Type/Name,Average Warmup Temperature Difference {deltaC},Std Dev Warmup Temperature Difference {deltaC},Max Temperature Pass/Fail Convergence,Min Temperature Pass/Fail Convergence,Average Warmup Load Difference {W},Std Dev Warmup Load Difference {W},Heating Load Pass/Fail Convergence,Cooling Load Pass/Fail Convergence
 Warmup Convergence Information,BLOCK1:ZONE2,RunPeriod: UNTITLED (O1-O1:31-12),6.8870552235E-003,4.1656097532E-003,Pass,Pass,2.0722866099E-002,2.1684346456E-002,Pass,Pass
 Warmup Convergence Information,BLOCK1:ZONE1,RunPeriod: UNTITLED (O1-O1:31-12),2.2653554320E-002,1.4738647534E-002,Pass,Pass,3.5876685882E-002,4.0929101038E-002,Pass,Pass
! <Program Control Information:Threads/Parallel Sims>, Threading Supported,Maximum Number of Threads, Env Set Threads (OMP_NUM_THREADS), EP Env Set Threads (EP_OMP_NUM_THREADS), IDF Set Threads, Number of Threads Used (Interior Radiant Exchange), Number Nominal Surfaces, Number Parallel Sims
Program Control:Threads/Parallel Sims, No,1, N/A, N/A, N/A, N/A, N/A, N/A
End of Data
