Program Version,EnergyPlus, Version 9.6.0-f420c06a69, YMD=2022.04.22 11:27,
   ** Warning ** Timestep: Requested number (2) is less than the suggested minimum of 4.
   **   ~~~   ** Please see entry for Timestep in Input/Output Reference for discussion of considerations.
   ************* Beginning Zone Sizing Calculations
   ** Warning ** GetSurfaceData: Entered Zone Floor Areas differ from calculated Zone Floor Area(s).
   **   ~~~   ** ...use Output:Diagnostics,DisplayExtraWarnings; to show more details on individual zones.
   ** Warning ** CalcSurfaceCentroid: 26 Surfaces have the Z coordinate < 0.
   **   ~~~   ** ...in any calculations, Wind Speed will be 0.0 for these surfaces.
   **   ~~~   ** ...in any calculations, Outside temperatures will be the outside temperature + 9.750E-003 for these surfaces.
   **   ~~~   ** ...that is, these surfaces will have conditions as though at ground level.
   ************* Note that the following warning(s) may/will occur if you have not enclosed your zone completely.
   ** Warning ** Entered Zone Volumes differ from calculated zone volume(s).
   **   ~~~   ** ...use Output:Diagnostics,DisplayExtraWarnings; to show more details on individual zones.
   ** Warning ** CalculateZoneVolume: 1 zone is not fully enclosed. For more details use:  Output:Diagnostics,DisplayExtrawarnings; 
   ** Warning ** CheckUsedConstructions: There are 9 nominally unused constructions in input.
   **   ~~~   ** For explicit details on each unused construction, use Output:Diagnostics,DisplayExtraWarnings;
   ** Warning ** Energy Management System is missing input object EnergyManagementSystem:ProgramCallingManager
   **   ~~~   ** EnergyPlus Runtime Language programs need a calling manager to control when they get executed
   ** Warning ** DeterminePolygonOverlap: Too many figures [>15000]  detected in an overlap calculation. Use Output:Diagnostics,DisplayExtraWarnings; for more details.
   ** Warning ** GetVRFInput: AirConditioner:VariableRefrigerantFlow="VRF OUTDOOR UNIT_BLOCK1:ZONE1" curve values
   **   ~~~   ** ... Cooling Capacity Ratio Modifier Function of Low Temperature Curve Name = VRFCOOLCAPFT output is not equal to 1.0 (+ or - 10%) at rated conditions.
   **   ~~~   ** ... Curve output at rated conditions = 1.136
   ** Warning ** AirConditioner:VariableRefrigerantFlow = "VRF OUTDOOR UNIT_BLOCK1:ZONE1", Minimum Condenser Inlet Node Temperature in Heat Recovery Mode is less than the minimum temperature in heat pump mode.
   **   ~~~   ** ...Minimum Condenser Inlet Node Temperature in Heat Recovery Mode = -9.99 C
   **   ~~~   ** ...Minimum Outdoor Temperature in Cooling Mode = -5.99 C
   **   ~~~   ** ...Minimum Outdoor Temperature in Heating Mode = -19.99 C
   **   ~~~   ** ...Minimum Outdoor Temperature in Heat Recovery Mode reset to greater of cooling or heating minimum temperature and simulation continues.
   **   ~~~   ** ... adjusted Minimum Condenser Inlet Node Temperature in Heat Recovery Mode = -5.99 C
   ** Warning ** GetDXCoils: Coil:Cooling:DX:VariableRefrigerantFlow="BLOCK1:ZONE1 VRF INDOOR UNIT DX COOLING COIL" curve values
   **   ~~~   ** ... Cooling Capacity Ratio Modifier Function of Temperature Curve Name = VRFTUCOOLCAPFT output is not equal to 1.0 (+ or - 10%) at rated conditions.
   **   ~~~   ** ... Curve output at rated conditions = 1.136
   ** Warning ** GetDXCoils: Coil:Cooling:DX:VariableRefrigerantFlow="BLOCK1:ZONE3 VRF INDOOR UNIT DX COOLING COIL" curve values
   **   ~~~   ** ... Cooling Capacity Ratio Modifier Function of Temperature Curve Name = VRFTUCOOLCAPFT output is not equal to 1.0 (+ or - 10%) at rated conditions.
   **   ~~~   ** ... Curve output at rated conditions = 1.136
   ** Warning ** GetDXCoils: Coil:Cooling:DX:VariableRefrigerantFlow="BLOCK1:ZONE5 VRF INDOOR UNIT DX COOLING COIL" curve values
   **   ~~~   ** ... Cooling Capacity Ratio Modifier Function of Temperature Curve Name = VRFTUCOOLCAPFT output is not equal to 1.0 (+ or - 10%) at rated conditions.
   **   ~~~   ** ... Curve output at rated conditions = 1.136
   ** Warning ** GetDXCoils: Coil:Cooling:DX:VariableRefrigerantFlow="BLOCK1:ZONE2 VRF INDOOR UNIT DX COOLING COIL" curve values
   **   ~~~   ** ... Cooling Capacity Ratio Modifier Function of Temperature Curve Name = VRFTUCOOLCAPFT output is not equal to 1.0 (+ or - 10%) at rated conditions.
   **   ~~~   ** ... Curve output at rated conditions = 1.136
   ** Warning ** GetDXCoils: Coil:Cooling:DX:VariableRefrigerantFlow="BLOCK1:ZONE4 VRF INDOOR UNIT DX COOLING COIL" curve values
   **   ~~~   ** ... Cooling Capacity Ratio Modifier Function of Temperature Curve Name = VRFTUCOOLCAPFT output is not equal to 1.0 (+ or - 10%) at rated conditions.
   **   ~~~   ** ... Curve output at rated conditions = 1.136
   ** Warning ** ManageSizing: For a plant sizing run, there must be at least 1 Sizing:Plant object input. SimulationControl Plant Sizing option ignored.
   ** Warning ** Output:Meter: invalid Key Name="NATURALGAS:FACILITY" - not found.
   ** Warning ** Output:Meter: invalid Key Name="HEATREJECTION:ELECTRICITY" - not found.
   ************* Testing Individual Branch Integrity
   ************* All Branches passed integrity testing
   ************* Testing Individual Supply Air Path Integrity
   ************* All Supply Air Paths passed integrity testing
   ************* Testing Individual Return Air Path Integrity
   ************* All Return Air Paths passed integrity testing
   ************* No node connection errors were found.
   ************* Beginning Simulation
   ** Warning ** In Output:Table:Monthly 'EndUseEnergyConsumptionOtherFuelsMonthly' invalid Variable or Meter Name 'EXTERIOREQUIPMENT:OTHERFUEL1'
   ** Warning ** In Output:Table:Monthly 'EndUseEnergyConsumptionOtherFuelsMonthly' invalid Variable or Meter Name 'COOLING:OTHERFUEL1'
   ** Warning ** In Output:Table:Monthly 'EndUseEnergyConsumptionOtherFuelsMonthly' invalid Variable or Meter Name 'HEATING:OTHERFUEL1'
   ** Warning ** In Output:Table:Monthly 'EndUseEnergyConsumptionOtherFuelsMonthly' invalid Variable or Meter Name 'WATERSYSTEMS:OTHERFUEL1'
   ** Warning ** In Output:Table:Monthly 'EndUseEnergyConsumptionOtherFuelsMonthly' invalid Variable or Meter Name 'COGENERATION:OTHERFUEL1'
   ** Warning ** In Output:Table:Monthly 'EndUseEnergyConsumptionOtherFuelsMonthly' invalid Variable or Meter Name 'EXTERIOREQUIPMENT:OTHERFUEL2'
   ** Warning ** In Output:Table:Monthly 'EndUseEnergyConsumptionOtherFuelsMonthly' invalid Variable or Meter Name 'COOLING:OTHERFUEL2'
   ** Warning ** In Output:Table:Monthly 'EndUseEnergyConsumptionOtherFuelsMonthly' invalid Variable or Meter Name 'HEATING:OTHERFUEL2'
   ** Warning ** In Output:Table:Monthly 'EndUseEnergyConsumptionOtherFuelsMonthly' invalid Variable or Meter Name 'WATERSYSTEMS:OTHERFUEL2'
   ** Warning ** In Output:Table:Monthly 'EndUseEnergyConsumptionOtherFuelsMonthly' invalid Variable or Meter Name 'COGENERATION:OTHERFUEL2'
   ** Warning ** In Output:Table:Monthly 'PeakEnergyEndUseOtherFuelsMonthly' invalid Variable or Meter Name 'EXTERIOREQUIPMENT:OTHERFUEL1'
   ** Warning ** In Output:Table:Monthly 'PeakEnergyEndUseOtherFuelsMonthly' invalid Variable or Meter Name 'COOLING:OTHERFUEL1'
   ** Warning ** In Output:Table:Monthly 'PeakEnergyEndUseOtherFuelsMonthly' invalid Variable or Meter Name 'HEATING:OTHERFUEL1'
   ** Warning ** In Output:Table:Monthly 'PeakEnergyEndUseOtherFuelsMonthly' invalid Variable or Meter Name 'WATERSYSTEMS:OTHERFUEL1'
   ** Warning ** In Output:Table:Monthly 'PeakEnergyEndUseOtherFuelsMonthly' invalid Variable or Meter Name 'COGENERATION:OTHERFUEL1'
   ** Warning ** In Output:Table:Monthly 'PeakEnergyEndUseOtherFuelsMonthly' invalid Variable or Meter Name 'EXTERIOREQUIPMENT:OTHERFUEL2'
   ** Warning ** In Output:Table:Monthly 'PeakEnergyEndUseOtherFuelsMonthly' invalid Variable or Meter Name 'COOLING:OTHERFUEL2'
   ** Warning ** In Output:Table:Monthly 'PeakEnergyEndUseOtherFuelsMonthly' invalid Variable or Meter Name 'HEATING:OTHERFUEL2'
   ** Warning ** In Output:Table:Monthly 'PeakEnergyEndUseOtherFuelsMonthly' invalid Variable or Meter Name 'WATERSYSTEMS:OTHERFUEL2'
   ** Warning ** In Output:Table:Monthly 'PeakEnergyEndUseOtherFuelsMonthly' invalid Variable or Meter Name 'COGENERATION:OTHERFUEL2'
   ** Warning ** Processing Monthly Tabular Reports: Variable names not valid for this simulation
   **   ~~~   ** ...use Output:Diagnostics,DisplayExtraWarnings; to show more details on individual variables.
   ** Warning ** AirConditioner:VariableRefrigerantFlow "VRF OUTDOOR UNIT_BLOCK1:ZONE1".
   **   ~~~   ** ...InitVRF: VRF Heat Pump Min/Max Operating Temperature in Heating Mode Limits have been exceeded and VRF system is disabled.
   **   ~~~   ** ... Outdoor Unit Inlet Air Temperature             = -20.199
   **   ~~~   ** ... Heating Minimum Outdoor Unit Inlet Temperature = -19.999
   **   ~~~   ** ... Heating Maximum Outdoor Unit Inlet Temperature = 40.000
   **   ~~~   ** ... Check VRF Heat Pump Min/Max Outdoor Temperature in Heating Mode limits.
   **   ~~~   **  Environment=UNTITLED (O1-O1:31-12), at Simulation time=01/23 23:30 - 24:00
   ************* Simulation Error Summary *************
   ** Warning ** The following Report Variables were requested but not generated -- check.rdd file
   **   ~~~   ** Either the IDF did not contain these elements, the variable name is misspelled,
   **   ~~~   ** or the requested variable is an advanced output which requires Output : Diagnostics, DisplayAdvancedReportVariables;
   ************* Key=*, VarName=HEATING COIL ELECTRICITY ENERGY, Frequency=Hourly
   ************* Key=*, VarName=HEATING COIL NATURALGAS ENERGY, Frequency=Hourly
   ************* Key=*, VarName=HEATING COIL DEFROST ELECTRICITY ENERGY, Frequency=Hourly
   ************* Key=*, VarName=HEATING COIL CRANKCASE HEATER ELECTRICITY ENERGY, Frequency=Hourly
   ************* Key=*, VarName=COOLING COIL ELECTRICITY ENERGY, Frequency=Hourly
   ************* Key=*, VarName=HEATING COIL TOTAL HEATING RATE, Frequency=Hourly
   ************* Key=*, VarName=HEATING COIL AIR HEATING RATE, Frequency=Hourly
   ************* Key=*, VarName=ZONE AIR TERMINAL BEAM SENSIBLE COOLING RATE, Frequency=Hourly
   ************* Key=*, VarName=ZONE AIR TERMINAL BEAM CHILLED WATER ENERGY, Frequency=Hourly
   ************* Key=*, VarName=PUMP ELECTRICITY RATE, Frequency=Hourly
   ************* Key=*, VarName=BOILER ELECTRICITY RATE, Frequency=Hourly
   ************* Key=*, VarName=BOILER NATURALGAS RATE, Frequency=Hourly
   ************* Key=*, VarName=BOILER PROPANE RATE, Frequency=Hourly
   ************* Key=*, VarName=BOILER FUELOILNO1 RATE, Frequency=Hourly
   ************* Key=*, VarName=BOILER FUELOILNO2 RATE, Frequency=Hourly
   ************* Key=*, VarName=BOILER COAL RATE, Frequency=Hourly
   ************* Key=*, VarName=BOILER DIESEL RATE, Frequency=Hourly
   ************* Key=*, VarName=BOILER GASOLINE RATE, Frequency=Hourly
   ************* Key=*, VarName=BOILER OTHERFUEL1 RATE, Frequency=Hourly
   ************* Key=*, VarName=BOILER OTHERFUEL2 RATE, Frequency=Hourly
   ************* Key=*, VarName=BOILER ANCILLARY ELECTRICITY RATE, Frequency=Hourly
   ************* Key=*, VarName=EVAPORATIVE COOLER ELECTRICITY RATE, Frequency=Hourly
   ************* Key=*, VarName=HEAT PUMP ELECTRICITY RATE, Frequency=Hourly
   ************* Key=*, VarName=COOLING COIL WATER HEATING ELECTRICITY RATE, Frequency=Hourly
   ************* Key=*, VarName=WATER HEATER TANK TEMPERATURE, Frequency=Hourly
   ************* Key=*, VarName=VRF HEAT PUMP EVAPORATIVE CONDENSER PUMP ELECTRICITY RATE, Frequency=Hourly
   ************* Key=*, VarName=CHILLER ELECTRICITY RATE, Frequency=Hourly
   ************* Key=*, VarName=CHILLER EVAPORATOR COOLING RATE, Frequency=Hourly
   ************* Key=*, VarName=CHILLER CONDENSER FAN ELECTRICITY RATE, Frequency=Hourly
   ************* Key=*, VarName=COOLING TOWER FAN ELECTRICITY RATE, Frequency=Hourly
   ************* Key=*, VarName=CHILLER FALSE LOAD HEAT TRANSFER RATE, Frequency=Hourly
   ************* Key=*, VarName=CHILLER SOURCE STEAM RATE, Frequency=Hourly
   ************* Key=*, VarName=COOLING TOWER FAN ELECTRICITY ENERGY, Frequency=Hourly
   ************* Key=*, VarName=COOLING TOWER HEAT TRANSFER RATE, Frequency=Hourly
   ************* Key=*, VarName=COOLING TOWER INLET TEMPERATURE, Frequency=Hourly
   ************* Key=*, VarName=COOLING TOWER OUTLET TEMPERATURE, Frequency=Hourly
   ************* Key=*, VarName=COOLING TOWER MASS FLOW RATE, Frequency=Hourly
   ************* Key=*, VarName=COOLING TOWER BYPASS FRACTION, Frequency=Hourly
   ************* Key=*, VarName=COOLING TOWER FAN CYCLING RATIO, Frequency=Hourly
   ************* Key=*, VarName=COOLING TOWER OPERATING CELLS COUNT, Frequency=Hourly
   ************* Key=*, VarName=COOLING TOWER FAN SPEED LEVEL, Frequency=Hourly
   ************* Key=*, VarName=COOLING TOWER FAN SPEED RATIO, Frequency=Hourly
   ************* Key=*, VarName=COOLING TOWER FAN PART LOAD RATIO, Frequency=Hourly
   ************* Key=*, VarName=COOLING TOWER AIR FLOW RATE RATIO, Frequency=Hourly
   ************* Key=*, VarName=HEAT EXCHANGER SENSIBLE HEATING RATE, Frequency=Hourly
   ************* Key=*, VarName=HEAT EXCHANGER TOTAL HEATING RATE, Frequency=Hourly
   ************* Key=*, VarName=HEAT EXCHANGER SENSIBLE COOLING RATE, Frequency=Hourly
   ************* Key=*, VarName=HEAT EXCHANGER TOTAL COOLING RATE, Frequency=Hourly
   ************* Key=*, VarName=HUMIDIFIER ELECTRICITY RATE, Frequency=Hourly
   ************* Key=*, VarName=AIR LOOP DESICCANT DEHUMIDIFIER ELECTRIC CONSUMPTION, Frequency=Hourly
   ************* Key=*, VarName=WATER USE EQUIPMENT HEATING RATE, Frequency=Hourly
   ************* Key=*, VarName=WATER HEATER ELECTRICITY RATE, Frequency=Hourly
   ************* Key=*, VarName=WATER HEATER NATURALGAS RATE, Frequency=Hourly
   ************* Key=*, VarName=WATER HEATER PROPANE RATE, Frequency=Hourly
   ************* Key=*, VarName=WATER HEATER FUELOILNO1 RATE, Frequency=Hourly
   ************* Key=*, VarName=WATER HEATER FUELOILNO2 RATE, Frequency=Hourly
   ************* Key=*, VarName=WATER HEATER COAL RATE, Frequency=Hourly
   ************* Key=*, VarName=WATER HEATER DIESEL RATE, Frequency=Hourly
   ************* Key=*, VarName=WATER HEATER GASOLINE RATE, Frequency=Hourly
   ************* Key=*, VarName=WATER HEATER STEAM RATE, Frequency=Hourly
   ************* Key=*, VarName=WATER HEATER DISTRICTHEATING RATE, Frequency=Hourly
   ************* Key=*, VarName=WATER HEATER OTHERFUEL1 RATE, Frequency=Hourly
   ************* Key=*, VarName=WATER HEATER OTHERFUEL2 RATE, Frequency=Hourly
   ************* Key=*, VarName=BASEBOARD ELECTRICITY RATE, Frequency=Hourly
   ************* Key=*, VarName=ZONE ELECTRIC EQUIPMENT TOTAL HEATING RATE, Frequency=Hourly
   ************* Key=*, VarName=ZONE GAS EQUIPMENT TOTAL HEATING RATE, Frequency=Hourly
   ************* Key=*, VarName=WATER USE EQUIPMENT HEATING RATE, Frequency=Hourly
   ************* There are 1 unused objects in input.
   ************* Use Output:Diagnostics,DisplayUnusedObjects; to see them.
   ************* There are 12 unused schedules in input.
   ************* There are 5 unused week schedules in input.
   ************* There are 7 unused day schedules in input.
   ************* Use Output:Diagnostics,DisplayUnusedSchedules; to see them.
   *************
   ************* ===== Recurring Error Summary =====
   ************* The following recurring error messages occurred.
   *************
   *************  ** Warning ** AirConditioner:VariableRefrigerantFlow "VRF OUTDOOR UNIT_BLOCK1:ZONE1" -- Exceeded VRF Heat Pump min/max heating temperature limit error continues...
   *************  **   ~~~   **   This error occurred 150 total times;
   *************  **   ~~~   **   during Warmup 0 times;
   *************  **   ~~~   **   during Sizing 0 times.
   *************  **   ~~~   **   Max=-20.1  Min=-21.1
   *************
   *************
   ************* ===== Final Error Summary =====
   ************* The following error categories occurred.  Consider correcting or noting.
   ************* Nominally Unused Constructions
   ************* ..The nominally unused constructions warning is provided to alert you to potential conditions that can cause
   ************* ..extra time during simulation. Each construction is calculated by the algorithm indicated in the HeatBalanceAlgorithm
   ************* ..object. You may remove the constructions indicated (when you use the DisplayExtraWarnings option).
   *************
   ************* EnergyPlus Warmup Error Summary. During Warmup: 0 Warning; 0 Severe Errors.
   ************* EnergyPlus Sizing Error Summary. During Sizing: 15 Warning; 0 Severe Errors.
   ************* EnergyPlus Completed Successfully-- 190 Warning; 0 Severe Errors; Elapsed Time=00hr 00min 21.77sec
